data_image0
_chemical_formula_structural       Ta4O10Ta4O10Ta4O10Ta4O10Ta4O10Ta4O10Ta4O10Ta4O10Ta4O10Ta4O10Ta4O10Ta4O10Ta4O10Ta4O10Ta4O10Ta4O10Ta4O10Ta4O10Ta4O10Ta4O10Ta4O10Ta4O10Ta4O10Ta4O10Ta4O10Ta4O10Ta4O10Ta4O10Ta4O10Ta4O10Ta4O10Ta4O10Ta4O10Ta4O10Ta4O10Ta4O10Ta4O10Ta4O10Ta4O10Ta4O10Ta4O10Ta4O10Ta4O10Ta4O10Ta4O10Ta4O10Ta4O10Ta4O10Ta4O10Ta4O10Ta4O10Ta4O10Ta4O10Ta4O10Ta4O10Ta4O10Ta4O10Ta4O10Ta4O10Ta4O10Ta4O10Ta4O10Ta4O10Ta4O10Ta4O10Ta4O10Ta4O10Ta4O10Ta4O10Ta4O10Ta4O10Ta4O10Ta4O10Ta4O10Ta4O10Ta4O10Ta4O10Ta4O10Ta4O10Ta4O10Ta4O10Ta4O10Ta4O10Ta4O10Ta4O10Ta4O10Ta4O10Ta4O10Ta4O10Ta4O10Ta4O10Ta4O10Ta4O10Ta4O10Ta4O10Ta4O10Ta4O10Ta4O10Ta4O10Ta4O10Ta4O10Ta4O10Ta4O10Ta4O10Ta4O10Ta4O10Ta4O10Ta4O10Ta4O10Ta4O10Ta4O10Ta4O10Ta4O10Ta4O10Ta4O10Ta4O10Ta4O10Ta4O10Ta4O10Ta4O10Ta4O10Ta4O10Ta4O10Ta4O10Ta4O10Ta4O10Ta4O10Ta4O10Ta4O10Ta4O10Ta4O10Ta4O10Ta4O10Ta4O10Ta4O10Ta4O10Ta4O10Ta4O10Ta4O10Ta4O10Ta4O10Ta4O10Ta4O10Ta4O10Ta4O10Ta4O10Ta4O10Ta4O10Ta4O10Ta4O10Ta4O10Ta4O10Ta4O10Ta4O10Ta4O10Ta4O10Ta4O10Ta4O10Ta4O10Ta4O10
_chemical_formula_sum              "Ta640 O1600"
_cell_length_a       32.2048
_cell_length_b       31.2642
_cell_length_c       25.7273
_cell_angle_alpha    90
_cell_angle_beta     90
_cell_angle_gamma    99.067

_space_group_name_H-M_alt    "P 1"
_space_group_IT_number       1

loop_
  _space_group_symop_operation_xyz
  'x, y, z'

loop_
  _atom_site_type_symbol
  _atom_site_label
  _atom_site_symmetry_multiplicity
  _atom_site_fract_x
  _atom_site_fract_y
  _atom_site_fract_z
  _atom_site_occupancy
  Ta  Ta1       1.0  0.02774  0.12668  0.04186  1.0000
  Ta  Ta2       1.0  0.00094  0.22667  0.03897  1.0000
  Ta  Ta3       1.0  0.15274  0.12668  0.04186  1.0000
  Ta  Ta4       1.0  0.12594  0.22667  0.03897  1.0000
  O   O1        1.0  0.00660  0.17489  -0.00000  1.0000
  O   O2        1.0  0.24827  0.07971  0.08049  1.0000
  O   O3        1.0  0.18008  0.20002  0.06514  1.0000
  O   O4        1.0  0.02568  0.02871  0.00571  1.0000
  O   O5        1.0  0.08085  0.11540  0.01404  1.0000
  O   O6        1.0  0.13160  0.17489  0.00000  1.0000
  O   O7        1.0  0.12327  0.07971  0.08049  1.0000
  O   O8        1.0  0.05508  0.20002  0.06514  1.0000
  O   O9        1.0  0.15068  0.02871  0.00571  1.0000
  O   O10       1.0  0.20585  0.11540  0.01404  1.0000
  Ta  Ta5       1.0  0.18785  0.22313  0.14402  1.0000
  Ta  Ta6       1.0  0.16104  0.07312  0.14114  1.0000
  Ta  Ta7       1.0  0.06285  0.22313  0.14402  1.0000
  Ta  Ta8       1.0  0.03604  0.07312  0.14114  1.0000
  O   O11       1.0  0.16670  0.02134  0.10217  1.0000
  O   O12       1.0  0.15838  0.17616  0.18266  1.0000
  O   O13       1.0  0.09019  0.04647  0.16731  1.0000
  O   O14       1.0  0.18578  0.12516  0.10788  1.0000
  O   O15       1.0  0.24096  0.21185  0.11620  1.0000
  O   O16       1.0  0.04170  0.02134  0.10217  1.0000
  O   O17       1.0  0.03338  0.17616  0.18266  1.0000
  O   O18       1.0  0.21519  0.04647  0.16731  1.0000
  O   O19       1.0  0.06078  0.12516  0.10788  1.0000
  O   O20       1.0  0.11596  0.21185  0.11620  1.0000
  Ta  Ta9       1.0  0.09795  0.06958  0.24619  1.0000
  Ta  Ta10      1.0  0.07115  0.16957  0.24331  1.0000
  Ta  Ta11      1.0  0.22295  0.06958  0.24619  1.0000
  Ta  Ta12      1.0  0.19615  0.16957  0.24331  1.0000
  O   O21       1.0  0.07681  0.11779  0.20433  1.0000
  O   O22       1.0  0.06848  0.02261  0.28483  1.0000
  O   O23       1.0  0.00029  0.14292  0.26948  1.0000
  O   O24       1.0  0.09589  0.22161  0.21004  1.0000
  O   O25       1.0  0.15106  0.05830  0.21837  1.0000
  O   O26       1.0  0.20181  0.11779  0.20433  1.0000
  O   O27       1.0  0.19348  0.02261  0.28483  1.0000
  O   O28       1.0  0.12529  0.14292  0.26948  1.0000
  O   O29       1.0  0.22089  0.22161  0.21004  1.0000
  O   O30       1.0  0.02606  0.05830  0.21837  1.0000
  Ta  Ta13      1.0  0.00806  0.16603  0.34836  1.0000
  Ta  Ta14      1.0  0.23125  0.01602  0.34548  1.0000
  Ta  Ta15      1.0  0.13306  0.16603  0.34836  1.0000
  Ta  Ta16      1.0  0.10625  0.01602  0.34548  1.0000
  O   O31       1.0  0.23691  0.21424  0.30650  1.0000
  O   O32       1.0  0.22859  0.11906  0.38700  1.0000
  O   O33       1.0  0.16040  0.23937  0.37165  1.0000
  O   O34       1.0  0.00599  0.06806  0.31221  1.0000
  O   O35       1.0  0.06117  0.15475  0.32054  1.0000
  O   O36       1.0  0.11191  0.21424  0.30650  1.0000
  O   O37       1.0  0.10359  0.11906  0.38700  1.0000
  O   O38       1.0  0.03540  0.23937  0.37165  1.0000
  O   O39       1.0  0.13099  0.06806  0.31221  1.0000
  O   O40       1.0  0.18617  0.15475  0.32054  1.0000
  Ta  Ta17      1.0  0.16816  0.01248  0.45053  1.0000
  Ta  Ta18      1.0  0.14136  0.11247  0.44764  1.0000
  Ta  Ta19      1.0  0.04316  0.01248  0.45053  1.0000
  Ta  Ta20      1.0  0.01636  0.11247  0.44764  1.0000
  O   O41       1.0  0.14702  0.06069  0.40867  1.0000
  O   O42       1.0  0.13869  0.21551  0.48916  1.0000
  O   O43       1.0  0.07050  0.08582  0.47381  1.0000
  O   O44       1.0  0.16610  0.16451  0.41438  1.0000
  O   O45       1.0  0.22127  0.00120  0.42270  1.0000
  O   O46       1.0  0.02202  0.06069  0.40867  1.0000
  O   O47       1.0  0.01369  0.21551  0.48916  1.0000
  O   O48       1.0  0.19550  0.08582  0.47381  1.0000
  O   O49       1.0  0.04110  0.16451  0.41438  1.0000
  O   O50       1.0  0.09627  0.00120  0.42270  1.0000
  Ta  Ta21      1.0  0.07827  0.10893  0.55269  1.0000
  Ta  Ta22      1.0  0.05146  0.20892  0.54981  1.0000
  Ta  Ta23      1.0  0.20327  0.10893  0.55269  1.0000
  Ta  Ta24      1.0  0.17646  0.20892  0.54981  1.0000
  O   O51       1.0  0.05712  0.15714  0.51084  1.0000
  O   O52       1.0  0.04880  0.06196  0.59133  1.0000
  O   O53       1.0  0.23060  0.18227  0.57598  1.0000
  O   O54       1.0  0.07620  0.01096  0.51654  1.0000
  O   O55       1.0  0.13138  0.09765  0.52487  1.0000
  O   O56       1.0  0.18212  0.15714  0.51084  1.0000
  O   O57       1.0  0.17380  0.06196  0.59133  1.0000
  O   O58       1.0  0.10560  0.18227  0.57598  1.0000
  O   O59       1.0  0.20120  0.01096  0.51654  1.0000
  O   O60       1.0  0.00638  0.09765  0.52487  1.0000
  Ta  Ta25      1.0  0.23837  0.20538  0.65486  1.0000
  Ta  Ta26      1.0  0.21156  0.05537  0.65198  1.0000
  Ta  Ta27      1.0  0.11337  0.20538  0.65486  1.0000
  Ta  Ta28      1.0  0.08656  0.05537  0.65198  1.0000
  O   O61       1.0  0.21722  0.00359  0.61300  1.0000
  O   O62       1.0  0.20890  0.15841  0.69350  1.0000
  O   O63       1.0  0.14071  0.02872  0.67815  1.0000
  O   O64       1.0  0.23631  0.10741  0.61871  1.0000
  O   O65       1.0  0.04148  0.19410  0.62704  1.0000
  O   O66       1.0  0.09222  0.00359  0.61300  1.0000
  O   O67       1.0  0.08390  0.15841  0.69350  1.0000
  O   O68       1.0  0.01571  0.02872  0.67815  1.0000
  O   O69       1.0  0.11131  0.10741  0.61871  1.0000
  O   O70       1.0  0.16648  0.19410  0.62704  1.0000
  Ta  Ta29      1.0  0.14847  0.05183  0.75703  1.0000
  Ta  Ta30      1.0  0.12167  0.15182  0.75415  1.0000
  Ta  Ta31      1.0  0.02347  0.05183  0.75703  1.0000
  Ta  Ta32      1.0  0.24667  0.15182  0.75415  1.0000
  O   O71       1.0  0.12733  0.10004  0.71517  1.0000
  O   O72       1.0  0.11901  0.00486  0.79567  1.0000
  O   O73       1.0  0.05081  0.12517  0.78032  1.0000
  O   O74       1.0  0.14641  0.20386  0.72088  1.0000
  O   O75       1.0  0.20159  0.04055  0.72921  1.0000
  O   O76       1.0  0.00233  0.10004  0.71517  1.0000
  O   O77       1.0  0.24401  0.00486  0.79567  1.0000
  O   O78       1.0  0.17581  0.12517  0.78032  1.0000
  O   O79       1.0  0.02141  0.20386  0.72088  1.0000
  O   O80       1.0  0.07659  0.04055  0.72921  1.0000
  Ta  Ta33      1.0  0.05858  0.14828  0.85920  1.0000
  Ta  Ta34      1.0  0.03177  0.24827  0.85631  1.0000
  Ta  Ta35      1.0  0.18358  0.14828  0.85920  1.0000
  Ta  Ta36      1.0  0.15677  0.24827  0.85631  1.0000
  O   O81       1.0  0.03743  0.19649  0.81734  1.0000
  O   O82       1.0  0.02911  0.10131  0.89783  1.0000
  O   O83       1.0  0.21092  0.22162  0.88248  1.0000
  O   O84       1.0  0.05652  0.05031  0.82305  1.0000
  O   O85       1.0  0.11169  0.13700  0.83137  1.0000
  O   O86       1.0  0.16243  0.19649  0.81734  1.0000
  O   O87       1.0  0.15411  0.10131  0.89783  1.0000
  O   O88       1.0  0.08592  0.22162  0.88248  1.0000
  O   O89       1.0  0.18152  0.05031  0.82305  1.0000
  O   O90       1.0  0.23669  0.13700  0.83137  1.0000
  Ta  Ta37      1.0  0.21868  0.24473  0.96136  1.0000
  Ta  Ta38      1.0  0.19188  0.09472  0.95848  1.0000
  Ta  Ta39      1.0  0.09368  0.24473  0.96136  1.0000
  Ta  Ta40      1.0  0.06688  0.09472  0.95848  1.0000
  O   O91       1.0  0.19754  0.04294  0.91951  1.0000
  O   O92       1.0  0.18922  0.19776  1.00000  1.0000
  O   O93       1.0  0.12102  0.06807  0.98465  1.0000
  O   O94       1.0  0.21662  0.14676  0.92521  1.0000
  O   O95       1.0  0.02180  0.23345  0.93354  1.0000
  O   O96       1.0  0.07254  0.04294  0.91951  1.0000
  O   O97       1.0  0.06422  0.19776  1.00000  1.0000
  O   O98       1.0  0.24602  0.06807  0.98465  1.0000
  O   O99       1.0  0.09162  0.14676  0.92521  1.0000
  O   O100      1.0  0.14680  0.23345  0.93354  1.0000
  Ta  Ta41      1.0  0.02774  0.37668  0.04186  1.0000
  Ta  Ta42      1.0  0.00094  0.47667  0.03897  1.0000
  Ta  Ta43      1.0  0.15274  0.37668  0.04186  1.0000
  Ta  Ta44      1.0  0.12594  0.47667  0.03897  1.0000
  O   O101      1.0  0.00660  0.42489  -0.00000  1.0000
  O   O102      1.0  0.24827  0.32971  0.08049  1.0000
  O   O103      1.0  0.18008  0.45002  0.06514  1.0000
  O   O104      1.0  0.02568  0.27871  0.00571  1.0000
  O   O105      1.0  0.08085  0.36540  0.01404  1.0000
  O   O106      1.0  0.13160  0.42489  0.00000  1.0000
  O   O107      1.0  0.12327  0.32971  0.08049  1.0000
  O   O108      1.0  0.05508  0.45002  0.06514  1.0000
  O   O109      1.0  0.15068  0.27871  0.00571  1.0000
  O   O110      1.0  0.20585  0.36540  0.01404  1.0000
  Ta  Ta45      1.0  0.18785  0.47313  0.14402  1.0000
  Ta  Ta46      1.0  0.16104  0.32312  0.14114  1.0000
  Ta  Ta47      1.0  0.06285  0.47313  0.14402  1.0000
  Ta  Ta48      1.0  0.03604  0.32312  0.14114  1.0000
  O   O111      1.0  0.16670  0.27134  0.10217  1.0000
  O   O112      1.0  0.15838  0.42616  0.18266  1.0000
  O   O113      1.0  0.09019  0.29647  0.16731  1.0000
  O   O114      1.0  0.18578  0.37516  0.10788  1.0000
  O   O115      1.0  0.24096  0.46185  0.11620  1.0000
  O   O116      1.0  0.04170  0.27134  0.10217  1.0000
  O   O117      1.0  0.03338  0.42616  0.18266  1.0000
  O   O118      1.0  0.21519  0.29647  0.16731  1.0000
  O   O119      1.0  0.06078  0.37516  0.10788  1.0000
  O   O120      1.0  0.11596  0.46185  0.11620  1.0000
  Ta  Ta49      1.0  0.09795  0.31958  0.24619  1.0000
  Ta  Ta50      1.0  0.07115  0.41957  0.24331  1.0000
  Ta  Ta51      1.0  0.22295  0.31958  0.24619  1.0000
  Ta  Ta52      1.0  0.19615  0.41957  0.24331  1.0000
  O   O121      1.0  0.07681  0.36779  0.20433  1.0000
  O   O122      1.0  0.06848  0.27261  0.28483  1.0000
  O   O123      1.0  0.00029  0.39292  0.26948  1.0000
  O   O124      1.0  0.09589  0.47161  0.21004  1.0000
  O   O125      1.0  0.15106  0.30830  0.21837  1.0000
  O   O126      1.0  0.20181  0.36779  0.20433  1.0000
  O   O127      1.0  0.19348  0.27261  0.28483  1.0000
  O   O128      1.0  0.12529  0.39292  0.26948  1.0000
  O   O129      1.0  0.22089  0.47161  0.21004  1.0000
  O   O130      1.0  0.02606  0.30830  0.21837  1.0000
  Ta  Ta53      1.0  0.00806  0.41603  0.34836  1.0000
  Ta  Ta54      1.0  0.23125  0.26602  0.34548  1.0000
  Ta  Ta55      1.0  0.13306  0.41603  0.34836  1.0000
  Ta  Ta56      1.0  0.10625  0.26602  0.34548  1.0000
  O   O131      1.0  0.23691  0.46424  0.30650  1.0000
  O   O132      1.0  0.22859  0.36906  0.38700  1.0000
  O   O133      1.0  0.16040  0.48937  0.37165  1.0000
  O   O134      1.0  0.00599  0.31806  0.31221  1.0000
  O   O135      1.0  0.06117  0.40475  0.32054  1.0000
  O   O136      1.0  0.11191  0.46424  0.30650  1.0000
  O   O137      1.0  0.10359  0.36906  0.38700  1.0000
  O   O138      1.0  0.03540  0.48937  0.37165  1.0000
  O   O139      1.0  0.13099  0.31806  0.31221  1.0000
  O   O140      1.0  0.18617  0.40475  0.32054  1.0000
  Ta  Ta57      1.0  0.16816  0.26248  0.45053  1.0000
  Ta  Ta58      1.0  0.14136  0.36247  0.44764  1.0000
  Ta  Ta59      1.0  0.04316  0.26248  0.45053  1.0000
  Ta  Ta60      1.0  0.01636  0.36247  0.44764  1.0000
  O   O141      1.0  0.14702  0.31069  0.40867  1.0000
  O   O142      1.0  0.13869  0.46551  0.48916  1.0000
  O   O143      1.0  0.07050  0.33582  0.47381  1.0000
  O   O144      1.0  0.16610  0.41451  0.41438  1.0000
  O   O145      1.0  0.22127  0.25120  0.42270  1.0000
  O   O146      1.0  0.02202  0.31069  0.40867  1.0000
  O   O147      1.0  0.01369  0.46551  0.48916  1.0000
  O   O148      1.0  0.19550  0.33582  0.47381  1.0000
  O   O149      1.0  0.04110  0.41451  0.41438  1.0000
  O   O150      1.0  0.09627  0.25120  0.42270  1.0000
  Ta  Ta61      1.0  0.07827  0.35893  0.55269  1.0000
  Ta  Ta62      1.0  0.05146  0.45892  0.54981  1.0000
  Ta  Ta63      1.0  0.20327  0.35893  0.55269  1.0000
  Ta  Ta64      1.0  0.17646  0.45892  0.54981  1.0000
  O   O151      1.0  0.05712  0.40714  0.51084  1.0000
  O   O152      1.0  0.04880  0.31196  0.59133  1.0000
  O   O153      1.0  0.23060  0.43227  0.57598  1.0000
  O   O154      1.0  0.07620  0.26096  0.51654  1.0000
  O   O155      1.0  0.13138  0.34765  0.52487  1.0000
  O   O156      1.0  0.18212  0.40714  0.51084  1.0000
  O   O157      1.0  0.17380  0.31196  0.59133  1.0000
  O   O158      1.0  0.10560  0.43227  0.57598  1.0000
  O   O159      1.0  0.20120  0.26096  0.51654  1.0000
  O   O160      1.0  0.00638  0.34765  0.52487  1.0000
  Ta  Ta65      1.0  0.23837  0.45538  0.65486  1.0000
  Ta  Ta66      1.0  0.21156  0.30537  0.65198  1.0000
  Ta  Ta67      1.0  0.11337  0.45538  0.65486  1.0000
  Ta  Ta68      1.0  0.08656  0.30537  0.65198  1.0000
  O   O161      1.0  0.21722  0.25359  0.61300  1.0000
  O   O162      1.0  0.20890  0.40841  0.69350  1.0000
  O   O163      1.0  0.14071  0.27872  0.67815  1.0000
  O   O164      1.0  0.23631  0.35741  0.61871  1.0000
  O   O165      1.0  0.04148  0.44410  0.62704  1.0000
  O   O166      1.0  0.09222  0.25359  0.61300  1.0000
  O   O167      1.0  0.08390  0.40841  0.69350  1.0000
  O   O168      1.0  0.01571  0.27872  0.67815  1.0000
  O   O169      1.0  0.11131  0.35741  0.61871  1.0000
  O   O170      1.0  0.16648  0.44410  0.62704  1.0000
  Ta  Ta69      1.0  0.14847  0.30183  0.75703  1.0000
  Ta  Ta70      1.0  0.12167  0.40182  0.75415  1.0000
  Ta  Ta71      1.0  0.02347  0.30183  0.75703  1.0000
  Ta  Ta72      1.0  0.24667  0.40182  0.75415  1.0000
  O   O171      1.0  0.12733  0.35004  0.71517  1.0000
  O   O172      1.0  0.11901  0.25486  0.79567  1.0000
  O   O173      1.0  0.05081  0.37517  0.78032  1.0000
  O   O174      1.0  0.14641  0.45386  0.72088  1.0000
  O   O175      1.0  0.20159  0.29055  0.72921  1.0000
  O   O176      1.0  0.00233  0.35004  0.71517  1.0000
  O   O177      1.0  0.24401  0.25486  0.79567  1.0000
  O   O178      1.0  0.17581  0.37517  0.78032  1.0000
  O   O179      1.0  0.02141  0.45386  0.72088  1.0000
  O   O180      1.0  0.07659  0.29055  0.72921  1.0000
  Ta  Ta73      1.0  0.05858  0.39828  0.85920  1.0000
  Ta  Ta74      1.0  0.03177  0.49827  0.85631  1.0000
  Ta  Ta75      1.0  0.18358  0.39828  0.85920  1.0000
  Ta  Ta76      1.0  0.15677  0.49827  0.85631  1.0000
  O   O181      1.0  0.03743  0.44649  0.81734  1.0000
  O   O182      1.0  0.02911  0.35131  0.89783  1.0000
  O   O183      1.0  0.21092  0.47162  0.88248  1.0000
  O   O184      1.0  0.05652  0.30031  0.82305  1.0000
  O   O185      1.0  0.11169  0.38700  0.83137  1.0000
  O   O186      1.0  0.16243  0.44649  0.81734  1.0000
  O   O187      1.0  0.15411  0.35131  0.89783  1.0000
  O   O188      1.0  0.08592  0.47162  0.88248  1.0000
  O   O189      1.0  0.18152  0.30031  0.82305  1.0000
  O   O190      1.0  0.23669  0.38700  0.83137  1.0000
  Ta  Ta77      1.0  0.21868  0.49473  0.96136  1.0000
  Ta  Ta78      1.0  0.19188  0.34472  0.95848  1.0000
  Ta  Ta79      1.0  0.09368  0.49473  0.96136  1.0000
  Ta  Ta80      1.0  0.06688  0.34472  0.95848  1.0000
  O   O191      1.0  0.19754  0.29294  0.91951  1.0000
  O   O192      1.0  0.18922  0.44776  1.00000  1.0000
  O   O193      1.0  0.12102  0.31807  0.98465  1.0000
  O   O194      1.0  0.21662  0.39676  0.92521  1.0000
  O   O195      1.0  0.02180  0.48345  0.93354  1.0000
  O   O196      1.0  0.07254  0.29294  0.91951  1.0000
  O   O197      1.0  0.06422  0.44776  1.00000  1.0000
  O   O198      1.0  0.24602  0.31807  0.98465  1.0000
  O   O199      1.0  0.09162  0.39676  0.92521  1.0000
  O   O200      1.0  0.14680  0.48345  0.93354  1.0000
  Ta  Ta81      1.0  0.02774  0.62668  0.04186  1.0000
  Ta  Ta82      1.0  0.00094  0.72667  0.03897  1.0000
  Ta  Ta83      1.0  0.15274  0.62668  0.04186  1.0000
  Ta  Ta84      1.0  0.12594  0.72667  0.03897  1.0000
  O   O201      1.0  0.00660  0.67489  -0.00000  1.0000
  O   O202      1.0  0.24827  0.57971  0.08049  1.0000
  O   O203      1.0  0.18008  0.70002  0.06514  1.0000
  O   O204      1.0  0.02568  0.52871  0.00571  1.0000
  O   O205      1.0  0.08085  0.61540  0.01404  1.0000
  O   O206      1.0  0.13160  0.67489  0.00000  1.0000
  O   O207      1.0  0.12327  0.57971  0.08049  1.0000
  O   O208      1.0  0.05508  0.70002  0.06514  1.0000
  O   O209      1.0  0.15068  0.52871  0.00571  1.0000
  O   O210      1.0  0.20585  0.61540  0.01404  1.0000
  Ta  Ta85      1.0  0.18785  0.72313  0.14402  1.0000
  Ta  Ta86      1.0  0.16104  0.57312  0.14114  1.0000
  Ta  Ta87      1.0  0.06285  0.72313  0.14402  1.0000
  Ta  Ta88      1.0  0.03604  0.57312  0.14114  1.0000
  O   O211      1.0  0.16670  0.52134  0.10217  1.0000
  O   O212      1.0  0.15838  0.67616  0.18266  1.0000
  O   O213      1.0  0.09019  0.54647  0.16731  1.0000
  O   O214      1.0  0.18578  0.62516  0.10788  1.0000
  O   O215      1.0  0.24096  0.71185  0.11620  1.0000
  O   O216      1.0  0.04170  0.52134  0.10217  1.0000
  O   O217      1.0  0.03338  0.67616  0.18266  1.0000
  O   O218      1.0  0.21519  0.54647  0.16731  1.0000
  O   O219      1.0  0.06078  0.62516  0.10788  1.0000
  O   O220      1.0  0.11596  0.71185  0.11620  1.0000
  Ta  Ta89      1.0  0.09795  0.56958  0.24619  1.0000
  Ta  Ta90      1.0  0.07115  0.66957  0.24331  1.0000
  Ta  Ta91      1.0  0.22295  0.56958  0.24619  1.0000
  Ta  Ta92      1.0  0.19615  0.66957  0.24331  1.0000
  O   O221      1.0  0.07681  0.61779  0.20433  1.0000
  O   O222      1.0  0.06848  0.52261  0.28483  1.0000
  O   O223      1.0  0.00029  0.64292  0.26948  1.0000
  O   O224      1.0  0.09589  0.72161  0.21004  1.0000
  O   O225      1.0  0.15106  0.55830  0.21837  1.0000
  O   O226      1.0  0.20181  0.61779  0.20433  1.0000
  O   O227      1.0  0.19348  0.52261  0.28483  1.0000
  O   O228      1.0  0.12529  0.64292  0.26948  1.0000
  O   O229      1.0  0.22089  0.72161  0.21004  1.0000
  O   O230      1.0  0.02606  0.55830  0.21837  1.0000
  Ta  Ta93      1.0  0.00806  0.66603  0.34836  1.0000
  Ta  Ta94      1.0  0.23125  0.51602  0.34548  1.0000
  Ta  Ta95      1.0  0.13306  0.66603  0.34836  1.0000
  Ta  Ta96      1.0  0.10625  0.51602  0.34548  1.0000
  O   O231      1.0  0.23691  0.71424  0.30650  1.0000
  O   O232      1.0  0.22859  0.61906  0.38700  1.0000
  O   O233      1.0  0.16040  0.73937  0.37165  1.0000
  O   O234      1.0  0.00599  0.56806  0.31221  1.0000
  O   O235      1.0  0.06117  0.65475  0.32054  1.0000
  O   O236      1.0  0.11191  0.71424  0.30650  1.0000
  O   O237      1.0  0.10359  0.61906  0.38700  1.0000
  O   O238      1.0  0.03540  0.73937  0.37165  1.0000
  O   O239      1.0  0.13099  0.56806  0.31221  1.0000
  O   O240      1.0  0.18617  0.65475  0.32054  1.0000
  Ta  Ta97      1.0  0.16816  0.51248  0.45053  1.0000
  Ta  Ta98      1.0  0.14136  0.61247  0.44764  1.0000
  Ta  Ta99      1.0  0.04316  0.51248  0.45053  1.0000
  Ta  Ta100     1.0  0.01636  0.61247  0.44764  1.0000
  O   O241      1.0  0.14702  0.56069  0.40867  1.0000
  O   O242      1.0  0.13869  0.71551  0.48916  1.0000
  O   O243      1.0  0.07050  0.58582  0.47381  1.0000
  O   O244      1.0  0.16610  0.66451  0.41438  1.0000
  O   O245      1.0  0.22127  0.50120  0.42270  1.0000
  O   O246      1.0  0.02202  0.56069  0.40867  1.0000
  O   O247      1.0  0.01369  0.71551  0.48916  1.0000
  O   O248      1.0  0.19550  0.58582  0.47381  1.0000
  O   O249      1.0  0.04110  0.66451  0.41438  1.0000
  O   O250      1.0  0.09627  0.50120  0.42270  1.0000
  Ta  Ta101     1.0  0.07827  0.60893  0.55269  1.0000
  Ta  Ta102     1.0  0.05146  0.70892  0.54981  1.0000
  Ta  Ta103     1.0  0.20327  0.60893  0.55269  1.0000
  Ta  Ta104     1.0  0.17646  0.70892  0.54981  1.0000
  O   O251      1.0  0.05712  0.65714  0.51084  1.0000
  O   O252      1.0  0.04880  0.56196  0.59133  1.0000
  O   O253      1.0  0.23060  0.68227  0.57598  1.0000
  O   O254      1.0  0.07620  0.51096  0.51654  1.0000
  O   O255      1.0  0.13138  0.59765  0.52487  1.0000
  O   O256      1.0  0.18212  0.65714  0.51084  1.0000
  O   O257      1.0  0.17380  0.56196  0.59133  1.0000
  O   O258      1.0  0.10560  0.68227  0.57598  1.0000
  O   O259      1.0  0.20120  0.51096  0.51654  1.0000
  O   O260      1.0  0.00638  0.59765  0.52487  1.0000
  Ta  Ta105     1.0  0.23837  0.70538  0.65486  1.0000
  Ta  Ta106     1.0  0.21156  0.55537  0.65198  1.0000
  Ta  Ta107     1.0  0.11337  0.70538  0.65486  1.0000
  Ta  Ta108     1.0  0.08656  0.55537  0.65198  1.0000
  O   O261      1.0  0.21722  0.50359  0.61300  1.0000
  O   O262      1.0  0.20890  0.65841  0.69350  1.0000
  O   O263      1.0  0.14071  0.52872  0.67815  1.0000
  O   O264      1.0  0.23631  0.60741  0.61871  1.0000
  O   O265      1.0  0.04148  0.69410  0.62704  1.0000
  O   O266      1.0  0.09222  0.50359  0.61300  1.0000
  O   O267      1.0  0.08390  0.65841  0.69350  1.0000
  O   O268      1.0  0.01571  0.52872  0.67815  1.0000
  O   O269      1.0  0.11131  0.60741  0.61871  1.0000
  O   O270      1.0  0.16648  0.69410  0.62704  1.0000
  Ta  Ta109     1.0  0.14847  0.55183  0.75703  1.0000
  Ta  Ta110     1.0  0.12167  0.65182  0.75415  1.0000
  Ta  Ta111     1.0  0.02347  0.55183  0.75703  1.0000
  Ta  Ta112     1.0  0.24667  0.65182  0.75415  1.0000
  O   O271      1.0  0.12733  0.60004  0.71517  1.0000
  O   O272      1.0  0.11901  0.50486  0.79567  1.0000
  O   O273      1.0  0.05081  0.62517  0.78032  1.0000
  O   O274      1.0  0.14641  0.70386  0.72088  1.0000
  O   O275      1.0  0.20159  0.54055  0.72921  1.0000
  O   O276      1.0  0.00233  0.60004  0.71517  1.0000
  O   O277      1.0  0.24401  0.50486  0.79567  1.0000
  O   O278      1.0  0.17581  0.62517  0.78032  1.0000
  O   O279      1.0  0.02141  0.70386  0.72088  1.0000
  O   O280      1.0  0.07659  0.54055  0.72921  1.0000
  Ta  Ta113     1.0  0.05858  0.64828  0.85920  1.0000
  Ta  Ta114     1.0  0.03177  0.74827  0.85631  1.0000
  Ta  Ta115     1.0  0.18358  0.64828  0.85920  1.0000
  Ta  Ta116     1.0  0.15677  0.74827  0.85631  1.0000
  O   O281      1.0  0.03743  0.69649  0.81734  1.0000
  O   O282      1.0  0.02911  0.60131  0.89783  1.0000
  O   O283      1.0  0.21092  0.72162  0.88248  1.0000
  O   O284      1.0  0.05652  0.55031  0.82305  1.0000
  O   O285      1.0  0.11169  0.63700  0.83137  1.0000
  O   O286      1.0  0.16243  0.69649  0.81734  1.0000
  O   O287      1.0  0.15411  0.60131  0.89783  1.0000
  O   O288      1.0  0.08592  0.72162  0.88248  1.0000
  O   O289      1.0  0.18152  0.55031  0.82305  1.0000
  O   O290      1.0  0.23669  0.63700  0.83137  1.0000
  Ta  Ta117     1.0  0.21868  0.74473  0.96136  1.0000
  Ta  Ta118     1.0  0.19188  0.59472  0.95848  1.0000
  Ta  Ta119     1.0  0.09368  0.74473  0.96136  1.0000
  Ta  Ta120     1.0  0.06688  0.59472  0.95848  1.0000
  O   O291      1.0  0.19754  0.54294  0.91951  1.0000
  O   O292      1.0  0.18922  0.69776  1.00000  1.0000
  O   O293      1.0  0.12102  0.56807  0.98465  1.0000
  O   O294      1.0  0.21662  0.64676  0.92521  1.0000
  O   O295      1.0  0.02180  0.73345  0.93354  1.0000
  O   O296      1.0  0.07254  0.54294  0.91951  1.0000
  O   O297      1.0  0.06422  0.69776  1.00000  1.0000
  O   O298      1.0  0.24602  0.56807  0.98465  1.0000
  O   O299      1.0  0.09162  0.64676  0.92521  1.0000
  O   O300      1.0  0.14680  0.73345  0.93354  1.0000
  Ta  Ta121     1.0  0.02774  0.87668  0.04186  1.0000
  Ta  Ta122     1.0  0.00094  0.97667  0.03897  1.0000
  Ta  Ta123     1.0  0.15274  0.87668  0.04186  1.0000
  Ta  Ta124     1.0  0.12594  0.97667  0.03897  1.0000
  O   O301      1.0  0.00660  0.92489  -0.00000  1.0000
  O   O302      1.0  0.24827  0.82971  0.08049  1.0000
  O   O303      1.0  0.18008  0.95002  0.06514  1.0000
  O   O304      1.0  0.02568  0.77871  0.00571  1.0000
  O   O305      1.0  0.08085  0.86540  0.01404  1.0000
  O   O306      1.0  0.13160  0.92489  0.00000  1.0000
  O   O307      1.0  0.12327  0.82971  0.08049  1.0000
  O   O308      1.0  0.05508  0.95002  0.06514  1.0000
  O   O309      1.0  0.15068  0.77871  0.00571  1.0000
  O   O310      1.0  0.20585  0.86540  0.01404  1.0000
  Ta  Ta125     1.0  0.18785  0.97313  0.14402  1.0000
  Ta  Ta126     1.0  0.16104  0.82312  0.14114  1.0000
  Ta  Ta127     1.0  0.06285  0.97313  0.14402  1.0000
  Ta  Ta128     1.0  0.03604  0.82312  0.14114  1.0000
  O   O311      1.0  0.16670  0.77134  0.10217  1.0000
  O   O312      1.0  0.15838  0.92616  0.18266  1.0000
  O   O313      1.0  0.09019  0.79647  0.16731  1.0000
  O   O314      1.0  0.18578  0.87516  0.10788  1.0000
  O   O315      1.0  0.24096  0.96185  0.11620  1.0000
  O   O316      1.0  0.04170  0.77134  0.10217  1.0000
  O   O317      1.0  0.03338  0.92616  0.18266  1.0000
  O   O318      1.0  0.21519  0.79647  0.16731  1.0000
  O   O319      1.0  0.06078  0.87516  0.10788  1.0000
  O   O320      1.0  0.11596  0.96185  0.11620  1.0000
  Ta  Ta129     1.0  0.09795  0.81958  0.24619  1.0000
  Ta  Ta130     1.0  0.07115  0.91957  0.24331  1.0000
  Ta  Ta131     1.0  0.22295  0.81958  0.24619  1.0000
  Ta  Ta132     1.0  0.19615  0.91957  0.24331  1.0000
  O   O321      1.0  0.07681  0.86779  0.20433  1.0000
  O   O322      1.0  0.06848  0.77261  0.28483  1.0000
  O   O323      1.0  0.00029  0.89292  0.26948  1.0000
  O   O324      1.0  0.09589  0.97161  0.21004  1.0000
  O   O325      1.0  0.15106  0.80830  0.21837  1.0000
  O   O326      1.0  0.20181  0.86779  0.20433  1.0000
  O   O327      1.0  0.19348  0.77261  0.28483  1.0000
  O   O328      1.0  0.12529  0.89292  0.26948  1.0000
  O   O329      1.0  0.22089  0.97161  0.21004  1.0000
  O   O330      1.0  0.02606  0.80830  0.21837  1.0000
  Ta  Ta133     1.0  0.00806  0.91603  0.34836  1.0000
  Ta  Ta134     1.0  0.23125  0.76602  0.34548  1.0000
  Ta  Ta135     1.0  0.13306  0.91603  0.34836  1.0000
  Ta  Ta136     1.0  0.10625  0.76602  0.34548  1.0000
  O   O331      1.0  0.23691  0.96424  0.30650  1.0000
  O   O332      1.0  0.22859  0.86906  0.38700  1.0000
  O   O333      1.0  0.16040  0.98937  0.37165  1.0000
  O   O334      1.0  0.00599  0.81806  0.31221  1.0000
  O   O335      1.0  0.06117  0.90475  0.32054  1.0000
  O   O336      1.0  0.11191  0.96424  0.30650  1.0000
  O   O337      1.0  0.10359  0.86906  0.38700  1.0000
  O   O338      1.0  0.03540  0.98937  0.37165  1.0000
  O   O339      1.0  0.13099  0.81806  0.31221  1.0000
  O   O340      1.0  0.18617  0.90475  0.32054  1.0000
  Ta  Ta137     1.0  0.16816  0.76248  0.45053  1.0000
  Ta  Ta138     1.0  0.14136  0.86247  0.44764  1.0000
  Ta  Ta139     1.0  0.04316  0.76248  0.45053  1.0000
  Ta  Ta140     1.0  0.01636  0.86247  0.44764  1.0000
  O   O341      1.0  0.14702  0.81069  0.40867  1.0000
  O   O342      1.0  0.13869  0.96551  0.48916  1.0000
  O   O343      1.0  0.07050  0.83582  0.47381  1.0000
  O   O344      1.0  0.16610  0.91451  0.41438  1.0000
  O   O345      1.0  0.22127  0.75120  0.42270  1.0000
  O   O346      1.0  0.02202  0.81069  0.40867  1.0000
  O   O347      1.0  0.01369  0.96551  0.48916  1.0000
  O   O348      1.0  0.19550  0.83582  0.47381  1.0000
  O   O349      1.0  0.04110  0.91451  0.41438  1.0000
  O   O350      1.0  0.09627  0.75120  0.42270  1.0000
  Ta  Ta141     1.0  0.07827  0.85893  0.55269  1.0000
  Ta  Ta142     1.0  0.05146  0.95892  0.54981  1.0000
  Ta  Ta143     1.0  0.20327  0.85893  0.55269  1.0000
  Ta  Ta144     1.0  0.17646  0.95892  0.54981  1.0000
  O   O351      1.0  0.05712  0.90714  0.51084  1.0000
  O   O352      1.0  0.04880  0.81196  0.59133  1.0000
  O   O353      1.0  0.23060  0.93227  0.57598  1.0000
  O   O354      1.0  0.07620  0.76096  0.51654  1.0000
  O   O355      1.0  0.13138  0.84765  0.52487  1.0000
  O   O356      1.0  0.18212  0.90714  0.51084  1.0000
  O   O357      1.0  0.17380  0.81196  0.59133  1.0000
  O   O358      1.0  0.10560  0.93227  0.57598  1.0000
  O   O359      1.0  0.20120  0.76096  0.51654  1.0000
  O   O360      1.0  0.00638  0.84765  0.52487  1.0000
  Ta  Ta145     1.0  0.23837  0.95538  0.65486  1.0000
  Ta  Ta146     1.0  0.21156  0.80537  0.65198  1.0000
  Ta  Ta147     1.0  0.11337  0.95538  0.65486  1.0000
  Ta  Ta148     1.0  0.08656  0.80537  0.65198  1.0000
  O   O361      1.0  0.21722  0.75359  0.61300  1.0000
  O   O362      1.0  0.20890  0.90841  0.69350  1.0000
  O   O363      1.0  0.14071  0.77872  0.67815  1.0000
  O   O364      1.0  0.23631  0.85741  0.61871  1.0000
  O   O365      1.0  0.04148  0.94410  0.62704  1.0000
  O   O366      1.0  0.09222  0.75359  0.61300  1.0000
  O   O367      1.0  0.08390  0.90841  0.69350  1.0000
  O   O368      1.0  0.01571  0.77872  0.67815  1.0000
  O   O369      1.0  0.11131  0.85741  0.61871  1.0000
  O   O370      1.0  0.16648  0.94410  0.62704  1.0000
  Ta  Ta149     1.0  0.14847  0.80183  0.75703  1.0000
  Ta  Ta150     1.0  0.12167  0.90182  0.75415  1.0000
  Ta  Ta151     1.0  0.02347  0.80183  0.75703  1.0000
  Ta  Ta152     1.0  0.24667  0.90182  0.75415  1.0000
  O   O371      1.0  0.12733  0.85004  0.71517  1.0000
  O   O372      1.0  0.11901  0.75486  0.79567  1.0000
  O   O373      1.0  0.05081  0.87517  0.78032  1.0000
  O   O374      1.0  0.14641  0.95386  0.72088  1.0000
  O   O375      1.0  0.20159  0.79055  0.72921  1.0000
  O   O376      1.0  0.00233  0.85004  0.71517  1.0000
  O   O377      1.0  0.24401  0.75486  0.79567  1.0000
  O   O378      1.0  0.17581  0.87517  0.78032  1.0000
  O   O379      1.0  0.02141  0.95386  0.72088  1.0000
  O   O380      1.0  0.07659  0.79055  0.72921  1.0000
  Ta  Ta153     1.0  0.05858  0.89828  0.85920  1.0000
  Ta  Ta154     1.0  0.03177  0.99827  0.85631  1.0000
  Ta  Ta155     1.0  0.18358  0.89828  0.85920  1.0000
  Ta  Ta156     1.0  0.15677  0.99827  0.85631  1.0000
  O   O381      1.0  0.03743  0.94649  0.81734  1.0000
  O   O382      1.0  0.02911  0.85131  0.89783  1.0000
  O   O383      1.0  0.21092  0.97162  0.88248  1.0000
  O   O384      1.0  0.05652  0.80031  0.82305  1.0000
  O   O385      1.0  0.11169  0.88700  0.83137  1.0000
  O   O386      1.0  0.16243  0.94649  0.81734  1.0000
  O   O387      1.0  0.15411  0.85131  0.89783  1.0000
  O   O388      1.0  0.08592  0.97162  0.88248  1.0000
  O   O389      1.0  0.18152  0.80031  0.82305  1.0000
  O   O390      1.0  0.23669  0.88700  0.83137  1.0000
  Ta  Ta157     1.0  0.21868  0.99473  0.96136  1.0000
  Ta  Ta158     1.0  0.19188  0.84472  0.95848  1.0000
  Ta  Ta159     1.0  0.09368  0.99473  0.96136  1.0000
  Ta  Ta160     1.0  0.06688  0.84472  0.95848  1.0000
  O   O391      1.0  0.19754  0.79294  0.91951  1.0000
  O   O392      1.0  0.18922  0.94776  1.00000  1.0000
  O   O393      1.0  0.12102  0.81807  0.98465  1.0000
  O   O394      1.0  0.21662  0.89676  0.92521  1.0000
  O   O395      1.0  0.02180  0.98345  0.93354  1.0000
  O   O396      1.0  0.07254  0.79294  0.91951  1.0000
  O   O397      1.0  0.06422  0.94776  1.00000  1.0000
  O   O398      1.0  0.24602  0.81807  0.98465  1.0000
  O   O399      1.0  0.09162  0.89676  0.92521  1.0000
  O   O400      1.0  0.14680  0.98345  0.93354  1.0000
  Ta  Ta161     1.0  0.27774  0.12668  0.04186  1.0000
  Ta  Ta162     1.0  0.25094  0.22667  0.03897  1.0000
  Ta  Ta163     1.0  0.40274  0.12668  0.04186  1.0000
  Ta  Ta164     1.0  0.37594  0.22667  0.03897  1.0000
  O   O401      1.0  0.25660  0.17489  -0.00000  1.0000
  O   O402      1.0  0.49827  0.07971  0.08049  1.0000
  O   O403      1.0  0.43008  0.20002  0.06514  1.0000
  O   O404      1.0  0.27568  0.02871  0.00571  1.0000
  O   O405      1.0  0.33085  0.11540  0.01404  1.0000
  O   O406      1.0  0.38160  0.17489  0.00000  1.0000
  O   O407      1.0  0.37327  0.07971  0.08049  1.0000
  O   O408      1.0  0.30508  0.20002  0.06514  1.0000
  O   O409      1.0  0.40068  0.02871  0.00571  1.0000
  O   O410      1.0  0.45585  0.11540  0.01404  1.0000
  Ta  Ta165     1.0  0.43785  0.22313  0.14402  1.0000
  Ta  Ta166     1.0  0.41104  0.07312  0.14114  1.0000
  Ta  Ta167     1.0  0.31285  0.22313  0.14402  1.0000
  Ta  Ta168     1.0  0.28604  0.07312  0.14114  1.0000
  O   O411      1.0  0.41670  0.02134  0.10217  1.0000
  O   O412      1.0  0.40838  0.17616  0.18266  1.0000
  O   O413      1.0  0.34019  0.04647  0.16731  1.0000
  O   O414      1.0  0.43578  0.12516  0.10788  1.0000
  O   O415      1.0  0.49096  0.21185  0.11620  1.0000
  O   O416      1.0  0.29170  0.02134  0.10217  1.0000
  O   O417      1.0  0.28338  0.17616  0.18266  1.0000
  O   O418      1.0  0.46519  0.04647  0.16731  1.0000
  O   O419      1.0  0.31078  0.12516  0.10788  1.0000
  O   O420      1.0  0.36596  0.21185  0.11620  1.0000
  Ta  Ta169     1.0  0.34795  0.06958  0.24619  1.0000
  Ta  Ta170     1.0  0.32115  0.16957  0.24331  1.0000
  Ta  Ta171     1.0  0.47295  0.06958  0.24619  1.0000
  Ta  Ta172     1.0  0.44615  0.16957  0.24331  1.0000
  O   O421      1.0  0.32681  0.11779  0.20433  1.0000
  O   O422      1.0  0.31848  0.02261  0.28483  1.0000
  O   O423      1.0  0.25029  0.14292  0.26948  1.0000
  O   O424      1.0  0.34589  0.22161  0.21004  1.0000
  O   O425      1.0  0.40106  0.05830  0.21837  1.0000
  O   O426      1.0  0.45181  0.11779  0.20433  1.0000
  O   O427      1.0  0.44348  0.02261  0.28483  1.0000
  O   O428      1.0  0.37529  0.14292  0.26948  1.0000
  O   O429      1.0  0.47089  0.22161  0.21004  1.0000
  O   O430      1.0  0.27606  0.05830  0.21837  1.0000
  Ta  Ta173     1.0  0.25806  0.16603  0.34836  1.0000
  Ta  Ta174     1.0  0.48125  0.01602  0.34548  1.0000
  Ta  Ta175     1.0  0.38306  0.16603  0.34836  1.0000
  Ta  Ta176     1.0  0.35625  0.01602  0.34548  1.0000
  O   O431      1.0  0.48691  0.21424  0.30650  1.0000
  O   O432      1.0  0.47859  0.11906  0.38700  1.0000
  O   O433      1.0  0.41040  0.23937  0.37165  1.0000
  O   O434      1.0  0.25599  0.06806  0.31221  1.0000
  O   O435      1.0  0.31117  0.15475  0.32054  1.0000
  O   O436      1.0  0.36191  0.21424  0.30650  1.0000
  O   O437      1.0  0.35359  0.11906  0.38700  1.0000
  O   O438      1.0  0.28540  0.23937  0.37165  1.0000
  O   O439      1.0  0.38099  0.06806  0.31221  1.0000
  O   O440      1.0  0.43617  0.15475  0.32054  1.0000
  Ta  Ta177     1.0  0.41816  0.01248  0.45053  1.0000
  Ta  Ta178     1.0  0.39136  0.11247  0.44764  1.0000
  Ta  Ta179     1.0  0.29316  0.01248  0.45053  1.0000
  Ta  Ta180     1.0  0.26636  0.11247  0.44764  1.0000
  O   O441      1.0  0.39702  0.06069  0.40867  1.0000
  O   O442      1.0  0.38869  0.21551  0.48916  1.0000
  O   O443      1.0  0.32050  0.08582  0.47381  1.0000
  O   O444      1.0  0.41610  0.16451  0.41438  1.0000
  O   O445      1.0  0.47127  0.00120  0.42270  1.0000
  O   O446      1.0  0.27202  0.06069  0.40867  1.0000
  O   O447      1.0  0.26369  0.21551  0.48916  1.0000
  O   O448      1.0  0.44550  0.08582  0.47381  1.0000
  O   O449      1.0  0.29110  0.16451  0.41438  1.0000
  O   O450      1.0  0.34627  0.00120  0.42270  1.0000
  Ta  Ta181     1.0  0.32827  0.10893  0.55269  1.0000
  Ta  Ta182     1.0  0.30146  0.20892  0.54981  1.0000
  Ta  Ta183     1.0  0.45327  0.10893  0.55269  1.0000
  Ta  Ta184     1.0  0.42646  0.20892  0.54981  1.0000
  O   O451      1.0  0.30712  0.15714  0.51084  1.0000
  O   O452      1.0  0.29880  0.06196  0.59133  1.0000
  O   O453      1.0  0.48060  0.18227  0.57598  1.0000
  O   O454      1.0  0.32620  0.01096  0.51654  1.0000
  O   O455      1.0  0.38138  0.09765  0.52487  1.0000
  O   O456      1.0  0.43212  0.15714  0.51084  1.0000
  O   O457      1.0  0.42380  0.06196  0.59133  1.0000
  O   O458      1.0  0.35560  0.18227  0.57598  1.0000
  O   O459      1.0  0.45120  0.01096  0.51654  1.0000
  O   O460      1.0  0.25638  0.09765  0.52487  1.0000
  Ta  Ta185     1.0  0.48837  0.20538  0.65486  1.0000
  Ta  Ta186     1.0  0.46156  0.05537  0.65198  1.0000
  Ta  Ta187     1.0  0.36337  0.20538  0.65486  1.0000
  Ta  Ta188     1.0  0.33656  0.05537  0.65198  1.0000
  O   O461      1.0  0.46722  0.00359  0.61300  1.0000
  O   O462      1.0  0.45890  0.15841  0.69350  1.0000
  O   O463      1.0  0.39071  0.02872  0.67815  1.0000
  O   O464      1.0  0.48631  0.10741  0.61871  1.0000
  O   O465      1.0  0.29148  0.19410  0.62704  1.0000
  O   O466      1.0  0.34222  0.00359  0.61300  1.0000
  O   O467      1.0  0.33390  0.15841  0.69350  1.0000
  O   O468      1.0  0.26571  0.02872  0.67815  1.0000
  O   O469      1.0  0.36131  0.10741  0.61871  1.0000
  O   O470      1.0  0.41648  0.19410  0.62704  1.0000
  Ta  Ta189     1.0  0.39847  0.05183  0.75703  1.0000
  Ta  Ta190     1.0  0.37167  0.15182  0.75415  1.0000
  Ta  Ta191     1.0  0.27347  0.05183  0.75703  1.0000
  Ta  Ta192     1.0  0.49667  0.15182  0.75415  1.0000
  O   O471      1.0  0.37733  0.10004  0.71517  1.0000
  O   O472      1.0  0.36901  0.00486  0.79567  1.0000
  O   O473      1.0  0.30081  0.12517  0.78032  1.0000
  O   O474      1.0  0.39641  0.20386  0.72088  1.0000
  O   O475      1.0  0.45159  0.04055  0.72921  1.0000
  O   O476      1.0  0.25233  0.10004  0.71517  1.0000
  O   O477      1.0  0.49401  0.00486  0.79567  1.0000
  O   O478      1.0  0.42581  0.12517  0.78032  1.0000
  O   O479      1.0  0.27141  0.20386  0.72088  1.0000
  O   O480      1.0  0.32659  0.04055  0.72921  1.0000
  Ta  Ta193     1.0  0.30858  0.14828  0.85920  1.0000
  Ta  Ta194     1.0  0.28177  0.24827  0.85631  1.0000
  Ta  Ta195     1.0  0.43358  0.14828  0.85920  1.0000
  Ta  Ta196     1.0  0.40677  0.24827  0.85631  1.0000
  O   O481      1.0  0.28743  0.19649  0.81734  1.0000
  O   O482      1.0  0.27911  0.10131  0.89783  1.0000
  O   O483      1.0  0.46092  0.22162  0.88248  1.0000
  O   O484      1.0  0.30652  0.05031  0.82305  1.0000
  O   O485      1.0  0.36169  0.13700  0.83137  1.0000
  O   O486      1.0  0.41243  0.19649  0.81734  1.0000
  O   O487      1.0  0.40411  0.10131  0.89783  1.0000
  O   O488      1.0  0.33592  0.22162  0.88248  1.0000
  O   O489      1.0  0.43152  0.05031  0.82305  1.0000
  O   O490      1.0  0.48669  0.13700  0.83137  1.0000
  Ta  Ta197     1.0  0.46868  0.24473  0.96136  1.0000
  Ta  Ta198     1.0  0.44188  0.09472  0.95848  1.0000
  Ta  Ta199     1.0  0.34368  0.24473  0.96136  1.0000
  Ta  Ta200     1.0  0.31688  0.09472  0.95848  1.0000
  O   O491      1.0  0.44754  0.04294  0.91951  1.0000
  O   O492      1.0  0.43922  0.19776  1.00000  1.0000
  O   O493      1.0  0.37102  0.06807  0.98465  1.0000
  O   O494      1.0  0.46662  0.14676  0.92521  1.0000
  O   O495      1.0  0.27180  0.23345  0.93354  1.0000
  O   O496      1.0  0.32254  0.04294  0.91951  1.0000
  O   O497      1.0  0.31422  0.19776  1.00000  1.0000
  O   O498      1.0  0.49602  0.06807  0.98465  1.0000
  O   O499      1.0  0.34162  0.14676  0.92521  1.0000
  O   O500      1.0  0.39680  0.23345  0.93354  1.0000
  Ta  Ta201     1.0  0.27774  0.37668  0.04186  1.0000
  Ta  Ta202     1.0  0.25094  0.47667  0.03897  1.0000
  Ta  Ta203     1.0  0.40274  0.37668  0.04186  1.0000
  Ta  Ta204     1.0  0.37594  0.47667  0.03897  1.0000
  O   O501      1.0  0.25660  0.42489  -0.00000  1.0000
  O   O502      1.0  0.49827  0.32971  0.08049  1.0000
  O   O503      1.0  0.43008  0.45002  0.06514  1.0000
  O   O504      1.0  0.27568  0.27871  0.00571  1.0000
  O   O505      1.0  0.33085  0.36540  0.01404  1.0000
  O   O506      1.0  0.38160  0.42489  0.00000  1.0000
  O   O507      1.0  0.37327  0.32971  0.08049  1.0000
  O   O508      1.0  0.30508  0.45002  0.06514  1.0000
  O   O509      1.0  0.40068  0.27871  0.00571  1.0000
  O   O510      1.0  0.45585  0.36540  0.01404  1.0000
  Ta  Ta205     1.0  0.43785  0.47313  0.14402  1.0000
  Ta  Ta206     1.0  0.41104  0.32312  0.14114  1.0000
  Ta  Ta207     1.0  0.31285  0.47313  0.14402  1.0000
  Ta  Ta208     1.0  0.28604  0.32312  0.14114  1.0000
  O   O511      1.0  0.41670  0.27134  0.10217  1.0000
  O   O512      1.0  0.40838  0.42616  0.18266  1.0000
  O   O513      1.0  0.34019  0.29647  0.16731  1.0000
  O   O514      1.0  0.43578  0.37516  0.10788  1.0000
  O   O515      1.0  0.49096  0.46185  0.11620  1.0000
  O   O516      1.0  0.29170  0.27134  0.10217  1.0000
  O   O517      1.0  0.28338  0.42616  0.18266  1.0000
  O   O518      1.0  0.46519  0.29647  0.16731  1.0000
  O   O519      1.0  0.31078  0.37516  0.10788  1.0000
  O   O520      1.0  0.36596  0.46185  0.11620  1.0000
  Ta  Ta209     1.0  0.34795  0.31958  0.24619  1.0000
  Ta  Ta210     1.0  0.32115  0.41957  0.24331  1.0000
  Ta  Ta211     1.0  0.47295  0.31958  0.24619  1.0000
  Ta  Ta212     1.0  0.44615  0.41957  0.24331  1.0000
  O   O521      1.0  0.32681  0.36779  0.20433  1.0000
  O   O522      1.0  0.31848  0.27261  0.28483  1.0000
  O   O523      1.0  0.25029  0.39292  0.26948  1.0000
  O   O524      1.0  0.34589  0.47161  0.21004  1.0000
  O   O525      1.0  0.40106  0.30830  0.21837  1.0000
  O   O526      1.0  0.45181  0.36779  0.20433  1.0000
  O   O527      1.0  0.44348  0.27261  0.28483  1.0000
  O   O528      1.0  0.37529  0.39292  0.26948  1.0000
  O   O529      1.0  0.47089  0.47161  0.21004  1.0000
  O   O530      1.0  0.27606  0.30830  0.21837  1.0000
  Ta  Ta213     1.0  0.25806  0.41603  0.34836  1.0000
  Ta  Ta214     1.0  0.48125  0.26602  0.34548  1.0000
  Ta  Ta215     1.0  0.38306  0.41603  0.34836  1.0000
  Ta  Ta216     1.0  0.35625  0.26602  0.34548  1.0000
  O   O531      1.0  0.48691  0.46424  0.30650  1.0000
  O   O532      1.0  0.47859  0.36906  0.38700  1.0000
  O   O533      1.0  0.41040  0.48937  0.37165  1.0000
  O   O534      1.0  0.25599  0.31806  0.31221  1.0000
  O   O535      1.0  0.31117  0.40475  0.32054  1.0000
  O   O536      1.0  0.36191  0.46424  0.30650  1.0000
  O   O537      1.0  0.35359  0.36906  0.38700  1.0000
  O   O538      1.0  0.28540  0.48937  0.37165  1.0000
  O   O539      1.0  0.38099  0.31806  0.31221  1.0000
  O   O540      1.0  0.43617  0.40475  0.32054  1.0000
  Ta  Ta217     1.0  0.41816  0.26248  0.45053  1.0000
  Ta  Ta218     1.0  0.39136  0.36247  0.44764  1.0000
  Ta  Ta219     1.0  0.29316  0.26248  0.45053  1.0000
  Ta  Ta220     1.0  0.26636  0.36247  0.44764  1.0000
  O   O541      1.0  0.39702  0.31069  0.40867  1.0000
  O   O542      1.0  0.38869  0.46551  0.48916  1.0000
  O   O543      1.0  0.32050  0.33582  0.47381  1.0000
  O   O544      1.0  0.41610  0.41451  0.41438  1.0000
  O   O545      1.0  0.47127  0.25120  0.42270  1.0000
  O   O546      1.0  0.27202  0.31069  0.40867  1.0000
  O   O547      1.0  0.26369  0.46551  0.48916  1.0000
  O   O548      1.0  0.44550  0.33582  0.47381  1.0000
  O   O549      1.0  0.29110  0.41451  0.41438  1.0000
  O   O550      1.0  0.34627  0.25120  0.42270  1.0000
  Ta  Ta221     1.0  0.32827  0.35893  0.55269  1.0000
  Ta  Ta222     1.0  0.30146  0.45892  0.54981  1.0000
  Ta  Ta223     1.0  0.45327  0.35893  0.55269  1.0000
  Ta  Ta224     1.0  0.42646  0.45892  0.54981  1.0000
  O   O551      1.0  0.30712  0.40714  0.51084  1.0000
  O   O552      1.0  0.29880  0.31196  0.59133  1.0000
  O   O553      1.0  0.48060  0.43227  0.57598  1.0000
  O   O554      1.0  0.32620  0.26096  0.51654  1.0000
  O   O555      1.0  0.38138  0.34765  0.52487  1.0000
  O   O556      1.0  0.43212  0.40714  0.51084  1.0000
  O   O557      1.0  0.42380  0.31196  0.59133  1.0000
  O   O558      1.0  0.35560  0.43227  0.57598  1.0000
  O   O559      1.0  0.45120  0.26096  0.51654  1.0000
  O   O560      1.0  0.25638  0.34765  0.52487  1.0000
  Ta  Ta225     1.0  0.48837  0.45538  0.65486  1.0000
  Ta  Ta226     1.0  0.46156  0.30537  0.65198  1.0000
  Ta  Ta227     1.0  0.36337  0.45538  0.65486  1.0000
  Ta  Ta228     1.0  0.33656  0.30537  0.65198  1.0000
  O   O561      1.0  0.46722  0.25359  0.61300  1.0000
  O   O562      1.0  0.45890  0.40841  0.69350  1.0000
  O   O563      1.0  0.39071  0.27872  0.67815  1.0000
  O   O564      1.0  0.48631  0.35741  0.61871  1.0000
  O   O565      1.0  0.29148  0.44410  0.62704  1.0000
  O   O566      1.0  0.34222  0.25359  0.61300  1.0000
  O   O567      1.0  0.33390  0.40841  0.69350  1.0000
  O   O568      1.0  0.26571  0.27872  0.67815  1.0000
  O   O569      1.0  0.36131  0.35741  0.61871  1.0000
  O   O570      1.0  0.41648  0.44410  0.62704  1.0000
  Ta  Ta229     1.0  0.39847  0.30183  0.75703  1.0000
  Ta  Ta230     1.0  0.37167  0.40182  0.75415  1.0000
  Ta  Ta231     1.0  0.27347  0.30183  0.75703  1.0000
  Ta  Ta232     1.0  0.49667  0.40182  0.75415  1.0000
  O   O571      1.0  0.37733  0.35004  0.71517  1.0000
  O   O572      1.0  0.36901  0.25486  0.79567  1.0000
  O   O573      1.0  0.30081  0.37517  0.78032  1.0000
  O   O574      1.0  0.39641  0.45386  0.72088  1.0000
  O   O575      1.0  0.45159  0.29055  0.72921  1.0000
  O   O576      1.0  0.25233  0.35004  0.71517  1.0000
  O   O577      1.0  0.49401  0.25486  0.79567  1.0000
  O   O578      1.0  0.42581  0.37517  0.78032  1.0000
  O   O579      1.0  0.27141  0.45386  0.72088  1.0000
  O   O580      1.0  0.32659  0.29055  0.72921  1.0000
  Ta  Ta233     1.0  0.30858  0.39828  0.85920  1.0000
  Ta  Ta234     1.0  0.28177  0.49827  0.85631  1.0000
  Ta  Ta235     1.0  0.43358  0.39828  0.85920  1.0000
  Ta  Ta236     1.0  0.40677  0.49827  0.85631  1.0000
  O   O581      1.0  0.28743  0.44649  0.81734  1.0000
  O   O582      1.0  0.27911  0.35131  0.89783  1.0000
  O   O583      1.0  0.46092  0.47162  0.88248  1.0000
  O   O584      1.0  0.30652  0.30031  0.82305  1.0000
  O   O585      1.0  0.36169  0.38700  0.83137  1.0000
  O   O586      1.0  0.41243  0.44649  0.81734  1.0000
  O   O587      1.0  0.40411  0.35131  0.89783  1.0000
  O   O588      1.0  0.33592  0.47162  0.88248  1.0000
  O   O589      1.0  0.43152  0.30031  0.82305  1.0000
  O   O590      1.0  0.48669  0.38700  0.83137  1.0000
  Ta  Ta237     1.0  0.46868  0.49473  0.96136  1.0000
  Ta  Ta238     1.0  0.44188  0.34472  0.95848  1.0000
  Ta  Ta239     1.0  0.34368  0.49473  0.96136  1.0000
  Ta  Ta240     1.0  0.31688  0.34472  0.95848  1.0000
  O   O591      1.0  0.44754  0.29294  0.91951  1.0000
  O   O592      1.0  0.43922  0.44776  1.00000  1.0000
  O   O593      1.0  0.37102  0.31807  0.98465  1.0000
  O   O594      1.0  0.46662  0.39676  0.92521  1.0000
  O   O595      1.0  0.27180  0.48345  0.93354  1.0000
  O   O596      1.0  0.32254  0.29294  0.91951  1.0000
  O   O597      1.0  0.31422  0.44776  1.00000  1.0000
  O   O598      1.0  0.49602  0.31807  0.98465  1.0000
  O   O599      1.0  0.34162  0.39676  0.92521  1.0000
  O   O600      1.0  0.39680  0.48345  0.93354  1.0000
  Ta  Ta241     1.0  0.27774  0.62668  0.04186  1.0000
  Ta  Ta242     1.0  0.25094  0.72667  0.03897  1.0000
  Ta  Ta243     1.0  0.40274  0.62668  0.04186  1.0000
  Ta  Ta244     1.0  0.37594  0.72667  0.03897  1.0000
  O   O601      1.0  0.25660  0.67489  -0.00000  1.0000
  O   O602      1.0  0.49827  0.57971  0.08049  1.0000
  O   O603      1.0  0.43008  0.70002  0.06514  1.0000
  O   O604      1.0  0.27568  0.52871  0.00571  1.0000
  O   O605      1.0  0.33085  0.61540  0.01404  1.0000
  O   O606      1.0  0.38160  0.67489  0.00000  1.0000
  O   O607      1.0  0.37327  0.57971  0.08049  1.0000
  O   O608      1.0  0.30508  0.70002  0.06514  1.0000
  O   O609      1.0  0.40068  0.52871  0.00571  1.0000
  O   O610      1.0  0.45585  0.61540  0.01404  1.0000
  Ta  Ta245     1.0  0.43785  0.72313  0.14402  1.0000
  Ta  Ta246     1.0  0.41104  0.57312  0.14114  1.0000
  Ta  Ta247     1.0  0.31285  0.72313  0.14402  1.0000
  Ta  Ta248     1.0  0.28604  0.57312  0.14114  1.0000
  O   O611      1.0  0.41670  0.52134  0.10217  1.0000
  O   O612      1.0  0.40838  0.67616  0.18266  1.0000
  O   O613      1.0  0.34019  0.54647  0.16731  1.0000
  O   O614      1.0  0.43578  0.62516  0.10788  1.0000
  O   O615      1.0  0.49096  0.71185  0.11620  1.0000
  O   O616      1.0  0.29170  0.52134  0.10217  1.0000
  O   O617      1.0  0.28338  0.67616  0.18266  1.0000
  O   O618      1.0  0.46519  0.54647  0.16731  1.0000
  O   O619      1.0  0.31078  0.62516  0.10788  1.0000
  O   O620      1.0  0.36596  0.71185  0.11620  1.0000
  Ta  Ta249     1.0  0.34795  0.56958  0.24619  1.0000
  Ta  Ta250     1.0  0.32115  0.66957  0.24331  1.0000
  Ta  Ta251     1.0  0.47295  0.56958  0.24619  1.0000
  Ta  Ta252     1.0  0.44615  0.66957  0.24331  1.0000
  O   O621      1.0  0.32681  0.61779  0.20433  1.0000
  O   O622      1.0  0.31848  0.52261  0.28483  1.0000
  O   O623      1.0  0.25029  0.64292  0.26948  1.0000
  O   O624      1.0  0.34589  0.72161  0.21004  1.0000
  O   O625      1.0  0.40106  0.55830  0.21837  1.0000
  O   O626      1.0  0.45181  0.61779  0.20433  1.0000
  O   O627      1.0  0.44348  0.52261  0.28483  1.0000
  O   O628      1.0  0.37529  0.64292  0.26948  1.0000
  O   O629      1.0  0.47089  0.72161  0.21004  1.0000
  O   O630      1.0  0.27606  0.55830  0.21837  1.0000
  Ta  Ta253     1.0  0.25806  0.66603  0.34836  1.0000
  Ta  Ta254     1.0  0.48125  0.51602  0.34548  1.0000
  Ta  Ta255     1.0  0.38306  0.66603  0.34836  1.0000
  Ta  Ta256     1.0  0.35625  0.51602  0.34548  1.0000
  O   O631      1.0  0.48691  0.71424  0.30650  1.0000
  O   O632      1.0  0.47859  0.61906  0.38700  1.0000
  O   O633      1.0  0.41040  0.73937  0.37165  1.0000
  O   O634      1.0  0.25599  0.56806  0.31221  1.0000
  O   O635      1.0  0.31117  0.65475  0.32054  1.0000
  O   O636      1.0  0.36191  0.71424  0.30650  1.0000
  O   O637      1.0  0.35359  0.61906  0.38700  1.0000
  O   O638      1.0  0.28540  0.73937  0.37165  1.0000
  O   O639      1.0  0.38099  0.56806  0.31221  1.0000
  O   O640      1.0  0.43617  0.65475  0.32054  1.0000
  Ta  Ta257     1.0  0.41816  0.51248  0.45053  1.0000
  Ta  Ta258     1.0  0.39136  0.61247  0.44764  1.0000
  Ta  Ta259     1.0  0.29316  0.51248  0.45053  1.0000
  Ta  Ta260     1.0  0.26636  0.61247  0.44764  1.0000
  O   O641      1.0  0.39702  0.56069  0.40867  1.0000
  O   O642      1.0  0.38869  0.71551  0.48916  1.0000
  O   O643      1.0  0.32050  0.58582  0.47381  1.0000
  O   O644      1.0  0.41610  0.66451  0.41438  1.0000
  O   O645      1.0  0.47127  0.50120  0.42270  1.0000
  O   O646      1.0  0.27202  0.56069  0.40867  1.0000
  O   O647      1.0  0.26369  0.71551  0.48916  1.0000
  O   O648      1.0  0.44550  0.58582  0.47381  1.0000
  O   O649      1.0  0.29110  0.66451  0.41438  1.0000
  O   O650      1.0  0.34627  0.50120  0.42270  1.0000
  Ta  Ta261     1.0  0.32827  0.60893  0.55269  1.0000
  Ta  Ta262     1.0  0.30146  0.70892  0.54981  1.0000
  Ta  Ta263     1.0  0.45327  0.60893  0.55269  1.0000
  Ta  Ta264     1.0  0.42646  0.70892  0.54981  1.0000
  O   O651      1.0  0.30712  0.65714  0.51084  1.0000
  O   O652      1.0  0.29880  0.56196  0.59133  1.0000
  O   O653      1.0  0.48060  0.68227  0.57598  1.0000
  O   O654      1.0  0.32620  0.51096  0.51654  1.0000
  O   O655      1.0  0.38138  0.59765  0.52487  1.0000
  O   O656      1.0  0.43212  0.65714  0.51084  1.0000
  O   O657      1.0  0.42380  0.56196  0.59133  1.0000
  O   O658      1.0  0.35560  0.68227  0.57598  1.0000
  O   O659      1.0  0.45120  0.51096  0.51654  1.0000
  O   O660      1.0  0.25638  0.59765  0.52487  1.0000
  Ta  Ta265     1.0  0.48837  0.70538  0.65486  1.0000
  Ta  Ta266     1.0  0.46156  0.55537  0.65198  1.0000
  Ta  Ta267     1.0  0.36337  0.70538  0.65486  1.0000
  Ta  Ta268     1.0  0.33656  0.55537  0.65198  1.0000
  O   O661      1.0  0.46722  0.50359  0.61300  1.0000
  O   O662      1.0  0.45890  0.65841  0.69350  1.0000
  O   O663      1.0  0.39071  0.52872  0.67815  1.0000
  O   O664      1.0  0.48631  0.60741  0.61871  1.0000
  O   O665      1.0  0.29148  0.69410  0.62704  1.0000
  O   O666      1.0  0.34222  0.50359  0.61300  1.0000
  O   O667      1.0  0.33390  0.65841  0.69350  1.0000
  O   O668      1.0  0.26571  0.52872  0.67815  1.0000
  O   O669      1.0  0.36131  0.60741  0.61871  1.0000
  O   O670      1.0  0.41648  0.69410  0.62704  1.0000
  Ta  Ta269     1.0  0.39847  0.55183  0.75703  1.0000
  Ta  Ta270     1.0  0.37167  0.65182  0.75415  1.0000
  Ta  Ta271     1.0  0.27347  0.55183  0.75703  1.0000
  Ta  Ta272     1.0  0.49667  0.65182  0.75415  1.0000
  O   O671      1.0  0.37733  0.60004  0.71517  1.0000
  O   O672      1.0  0.36901  0.50486  0.79567  1.0000
  O   O673      1.0  0.30081  0.62517  0.78032  1.0000
  O   O674      1.0  0.39641  0.70386  0.72088  1.0000
  O   O675      1.0  0.45159  0.54055  0.72921  1.0000
  O   O676      1.0  0.25233  0.60004  0.71517  1.0000
  O   O677      1.0  0.49401  0.50486  0.79567  1.0000
  O   O678      1.0  0.42581  0.62517  0.78032  1.0000
  O   O679      1.0  0.27141  0.70386  0.72088  1.0000
  O   O680      1.0  0.32659  0.54055  0.72921  1.0000
  Ta  Ta273     1.0  0.30858  0.64828  0.85920  1.0000
  Ta  Ta274     1.0  0.28177  0.74827  0.85631  1.0000
  Ta  Ta275     1.0  0.43358  0.64828  0.85920  1.0000
  Ta  Ta276     1.0  0.40677  0.74827  0.85631  1.0000
  O   O681      1.0  0.28743  0.69649  0.81734  1.0000
  O   O682      1.0  0.27911  0.60131  0.89783  1.0000
  O   O683      1.0  0.46092  0.72162  0.88248  1.0000
  O   O684      1.0  0.30652  0.55031  0.82305  1.0000
  O   O685      1.0  0.36169  0.63700  0.83137  1.0000
  O   O686      1.0  0.41243  0.69649  0.81734  1.0000
  O   O687      1.0  0.40411  0.60131  0.89783  1.0000
  O   O688      1.0  0.33592  0.72162  0.88248  1.0000
  O   O689      1.0  0.43152  0.55031  0.82305  1.0000
  O   O690      1.0  0.48669  0.63700  0.83137  1.0000
  Ta  Ta277     1.0  0.46868  0.74473  0.96136  1.0000
  Ta  Ta278     1.0  0.44188  0.59472  0.95848  1.0000
  Ta  Ta279     1.0  0.34368  0.74473  0.96136  1.0000
  Ta  Ta280     1.0  0.31688  0.59472  0.95848  1.0000
  O   O691      1.0  0.44754  0.54294  0.91951  1.0000
  O   O692      1.0  0.43922  0.69776  1.00000  1.0000
  O   O693      1.0  0.37102  0.56807  0.98465  1.0000
  O   O694      1.0  0.46662  0.64676  0.92521  1.0000
  O   O695      1.0  0.27180  0.73345  0.93354  1.0000
  O   O696      1.0  0.32254  0.54294  0.91951  1.0000
  O   O697      1.0  0.31422  0.69776  1.00000  1.0000
  O   O698      1.0  0.49602  0.56807  0.98465  1.0000
  O   O699      1.0  0.34162  0.64676  0.92521  1.0000
  O   O700      1.0  0.39680  0.73345  0.93354  1.0000
  Ta  Ta281     1.0  0.27774  0.87668  0.04186  1.0000
  Ta  Ta282     1.0  0.25094  0.97667  0.03897  1.0000
  Ta  Ta283     1.0  0.40274  0.87668  0.04186  1.0000
  Ta  Ta284     1.0  0.37594  0.97667  0.03897  1.0000
  O   O701      1.0  0.25660  0.92489  -0.00000  1.0000
  O   O702      1.0  0.49827  0.82971  0.08049  1.0000
  O   O703      1.0  0.43008  0.95002  0.06514  1.0000
  O   O704      1.0  0.27568  0.77871  0.00571  1.0000
  O   O705      1.0  0.33085  0.86540  0.01404  1.0000
  O   O706      1.0  0.38160  0.92489  0.00000  1.0000
  O   O707      1.0  0.37327  0.82971  0.08049  1.0000
  O   O708      1.0  0.30508  0.95002  0.06514  1.0000
  O   O709      1.0  0.40068  0.77871  0.00571  1.0000
  O   O710      1.0  0.45585  0.86540  0.01404  1.0000
  Ta  Ta285     1.0  0.43785  0.97313  0.14402  1.0000
  Ta  Ta286     1.0  0.41104  0.82312  0.14114  1.0000
  Ta  Ta287     1.0  0.31285  0.97313  0.14402  1.0000
  Ta  Ta288     1.0  0.28604  0.82312  0.14114  1.0000
  O   O711      1.0  0.41670  0.77134  0.10217  1.0000
  O   O712      1.0  0.40838  0.92616  0.18266  1.0000
  O   O713      1.0  0.34019  0.79647  0.16731  1.0000
  O   O714      1.0  0.43578  0.87516  0.10788  1.0000
  O   O715      1.0  0.49096  0.96185  0.11620  1.0000
  O   O716      1.0  0.29170  0.77134  0.10217  1.0000
  O   O717      1.0  0.28338  0.92616  0.18266  1.0000
  O   O718      1.0  0.46519  0.79647  0.16731  1.0000
  O   O719      1.0  0.31078  0.87516  0.10788  1.0000
  O   O720      1.0  0.36596  0.96185  0.11620  1.0000
  Ta  Ta289     1.0  0.34795  0.81958  0.24619  1.0000
  Ta  Ta290     1.0  0.32115  0.91957  0.24331  1.0000
  Ta  Ta291     1.0  0.47295  0.81958  0.24619  1.0000
  Ta  Ta292     1.0  0.44615  0.91957  0.24331  1.0000
  O   O721      1.0  0.32681  0.86779  0.20433  1.0000
  O   O722      1.0  0.31848  0.77261  0.28483  1.0000
  O   O723      1.0  0.25029  0.89292  0.26948  1.0000
  O   O724      1.0  0.34589  0.97161  0.21004  1.0000
  O   O725      1.0  0.40106  0.80830  0.21837  1.0000
  O   O726      1.0  0.45181  0.86779  0.20433  1.0000
  O   O727      1.0  0.44348  0.77261  0.28483  1.0000
  O   O728      1.0  0.37529  0.89292  0.26948  1.0000
  O   O729      1.0  0.47089  0.97161  0.21004  1.0000
  O   O730      1.0  0.27606  0.80830  0.21837  1.0000
  Ta  Ta293     1.0  0.25806  0.91603  0.34836  1.0000
  Ta  Ta294     1.0  0.48125  0.76602  0.34548  1.0000
  Ta  Ta295     1.0  0.38306  0.91603  0.34836  1.0000
  Ta  Ta296     1.0  0.35625  0.76602  0.34548  1.0000
  O   O731      1.0  0.48691  0.96424  0.30650  1.0000
  O   O732      1.0  0.47859  0.86906  0.38700  1.0000
  O   O733      1.0  0.41040  0.98937  0.37165  1.0000
  O   O734      1.0  0.25599  0.81806  0.31221  1.0000
  O   O735      1.0  0.31117  0.90475  0.32054  1.0000
  O   O736      1.0  0.36191  0.96424  0.30650  1.0000
  O   O737      1.0  0.35359  0.86906  0.38700  1.0000
  O   O738      1.0  0.28540  0.98937  0.37165  1.0000
  O   O739      1.0  0.38099  0.81806  0.31221  1.0000
  O   O740      1.0  0.43617  0.90475  0.32054  1.0000
  Ta  Ta297     1.0  0.41816  0.76248  0.45053  1.0000
  Ta  Ta298     1.0  0.39136  0.86247  0.44764  1.0000
  Ta  Ta299     1.0  0.29316  0.76248  0.45053  1.0000
  Ta  Ta300     1.0  0.26636  0.86247  0.44764  1.0000
  O   O741      1.0  0.39702  0.81069  0.40867  1.0000
  O   O742      1.0  0.38869  0.96551  0.48916  1.0000
  O   O743      1.0  0.32050  0.83582  0.47381  1.0000
  O   O744      1.0  0.41610  0.91451  0.41438  1.0000
  O   O745      1.0  0.47127  0.75120  0.42270  1.0000
  O   O746      1.0  0.27202  0.81069  0.40867  1.0000
  O   O747      1.0  0.26369  0.96551  0.48916  1.0000
  O   O748      1.0  0.44550  0.83582  0.47381  1.0000
  O   O749      1.0  0.29110  0.91451  0.41438  1.0000
  O   O750      1.0  0.34627  0.75120  0.42270  1.0000
  Ta  Ta301     1.0  0.32827  0.85893  0.55269  1.0000
  Ta  Ta302     1.0  0.30146  0.95892  0.54981  1.0000
  Ta  Ta303     1.0  0.45327  0.85893  0.55269  1.0000
  Ta  Ta304     1.0  0.42646  0.95892  0.54981  1.0000
  O   O751      1.0  0.30712  0.90714  0.51084  1.0000
  O   O752      1.0  0.29880  0.81196  0.59133  1.0000
  O   O753      1.0  0.48060  0.93227  0.57598  1.0000
  O   O754      1.0  0.32620  0.76096  0.51654  1.0000
  O   O755      1.0  0.38138  0.84765  0.52487  1.0000
  O   O756      1.0  0.43212  0.90714  0.51084  1.0000
  O   O757      1.0  0.42380  0.81196  0.59133  1.0000
  O   O758      1.0  0.35560  0.93227  0.57598  1.0000
  O   O759      1.0  0.45120  0.76096  0.51654  1.0000
  O   O760      1.0  0.25638  0.84765  0.52487  1.0000
  Ta  Ta305     1.0  0.48837  0.95538  0.65486  1.0000
  Ta  Ta306     1.0  0.46156  0.80537  0.65198  1.0000
  Ta  Ta307     1.0  0.36337  0.95538  0.65486  1.0000
  Ta  Ta308     1.0  0.33656  0.80537  0.65198  1.0000
  O   O761      1.0  0.46722  0.75359  0.61300  1.0000
  O   O762      1.0  0.45890  0.90841  0.69350  1.0000
  O   O763      1.0  0.39071  0.77872  0.67815  1.0000
  O   O764      1.0  0.48631  0.85741  0.61871  1.0000
  O   O765      1.0  0.29148  0.94410  0.62704  1.0000
  O   O766      1.0  0.34222  0.75359  0.61300  1.0000
  O   O767      1.0  0.33390  0.90841  0.69350  1.0000
  O   O768      1.0  0.26571  0.77872  0.67815  1.0000
  O   O769      1.0  0.36131  0.85741  0.61871  1.0000
  O   O770      1.0  0.41648  0.94410  0.62704  1.0000
  Ta  Ta309     1.0  0.39847  0.80183  0.75703  1.0000
  Ta  Ta310     1.0  0.37167  0.90182  0.75415  1.0000
  Ta  Ta311     1.0  0.27347  0.80183  0.75703  1.0000
  Ta  Ta312     1.0  0.49667  0.90182  0.75415  1.0000
  O   O771      1.0  0.37733  0.85004  0.71517  1.0000
  O   O772      1.0  0.36901  0.75486  0.79567  1.0000
  O   O773      1.0  0.30081  0.87517  0.78032  1.0000
  O   O774      1.0  0.39641  0.95386  0.72088  1.0000
  O   O775      1.0  0.45159  0.79055  0.72921  1.0000
  O   O776      1.0  0.25233  0.85004  0.71517  1.0000
  O   O777      1.0  0.49401  0.75486  0.79567  1.0000
  O   O778      1.0  0.42581  0.87517  0.78032  1.0000
  O   O779      1.0  0.27141  0.95386  0.72088  1.0000
  O   O780      1.0  0.32659  0.79055  0.72921  1.0000
  Ta  Ta313     1.0  0.30858  0.89828  0.85920  1.0000
  Ta  Ta314     1.0  0.28177  0.99827  0.85631  1.0000
  Ta  Ta315     1.0  0.43358  0.89828  0.85920  1.0000
  Ta  Ta316     1.0  0.40677  0.99827  0.85631  1.0000
  O   O781      1.0  0.28743  0.94649  0.81734  1.0000
  O   O782      1.0  0.27911  0.85131  0.89783  1.0000
  O   O783      1.0  0.46092  0.97162  0.88248  1.0000
  O   O784      1.0  0.30652  0.80031  0.82305  1.0000
  O   O785      1.0  0.36169  0.88700  0.83137  1.0000
  O   O786      1.0  0.41243  0.94649  0.81734  1.0000
  O   O787      1.0  0.40411  0.85131  0.89783  1.0000
  O   O788      1.0  0.33592  0.97162  0.88248  1.0000
  O   O789      1.0  0.43152  0.80031  0.82305  1.0000
  O   O790      1.0  0.48669  0.88700  0.83137  1.0000
  Ta  Ta317     1.0  0.46868  0.99473  0.96136  1.0000
  Ta  Ta318     1.0  0.44188  0.84472  0.95848  1.0000
  Ta  Ta319     1.0  0.34368  0.99473  0.96136  1.0000
  Ta  Ta320     1.0  0.31688  0.84472  0.95848  1.0000
  O   O791      1.0  0.44754  0.79294  0.91951  1.0000
  O   O792      1.0  0.43922  0.94776  1.00000  1.0000
  O   O793      1.0  0.37102  0.81807  0.98465  1.0000
  O   O794      1.0  0.46662  0.89676  0.92521  1.0000
  O   O795      1.0  0.27180  0.98345  0.93354  1.0000
  O   O796      1.0  0.32254  0.79294  0.91951  1.0000
  O   O797      1.0  0.31422  0.94776  1.00000  1.0000
  O   O798      1.0  0.49602  0.81807  0.98465  1.0000
  O   O799      1.0  0.34162  0.89676  0.92521  1.0000
  O   O800      1.0  0.39680  0.98345  0.93354  1.0000
  Ta  Ta321     1.0  0.52774  0.12668  0.04186  1.0000
  Ta  Ta322     1.0  0.50094  0.22667  0.03897  1.0000
  Ta  Ta323     1.0  0.65274  0.12668  0.04186  1.0000
  Ta  Ta324     1.0  0.62594  0.22667  0.03897  1.0000
  O   O801      1.0  0.50660  0.17489  -0.00000  1.0000
  O   O802      1.0  0.74827  0.07971  0.08049  1.0000
  O   O803      1.0  0.68008  0.20002  0.06514  1.0000
  O   O804      1.0  0.52568  0.02871  0.00571  1.0000
  O   O805      1.0  0.58085  0.11540  0.01404  1.0000
  O   O806      1.0  0.63160  0.17489  0.00000  1.0000
  O   O807      1.0  0.62327  0.07971  0.08049  1.0000
  O   O808      1.0  0.55508  0.20002  0.06514  1.0000
  O   O809      1.0  0.65068  0.02871  0.00571  1.0000
  O   O810      1.0  0.70585  0.11540  0.01404  1.0000
  Ta  Ta325     1.0  0.68785  0.22313  0.14402  1.0000
  Ta  Ta326     1.0  0.66104  0.07312  0.14114  1.0000
  Ta  Ta327     1.0  0.56285  0.22313  0.14402  1.0000
  Ta  Ta328     1.0  0.53604  0.07312  0.14114  1.0000
  O   O811      1.0  0.66670  0.02134  0.10217  1.0000
  O   O812      1.0  0.65838  0.17616  0.18266  1.0000
  O   O813      1.0  0.59019  0.04647  0.16731  1.0000
  O   O814      1.0  0.68578  0.12516  0.10788  1.0000
  O   O815      1.0  0.74096  0.21185  0.11620  1.0000
  O   O816      1.0  0.54170  0.02134  0.10217  1.0000
  O   O817      1.0  0.53338  0.17616  0.18266  1.0000
  O   O818      1.0  0.71519  0.04647  0.16731  1.0000
  O   O819      1.0  0.56078  0.12516  0.10788  1.0000
  O   O820      1.0  0.61596  0.21185  0.11620  1.0000
  Ta  Ta329     1.0  0.59795  0.06958  0.24619  1.0000
  Ta  Ta330     1.0  0.57115  0.16957  0.24331  1.0000
  Ta  Ta331     1.0  0.72295  0.06958  0.24619  1.0000
  Ta  Ta332     1.0  0.69615  0.16957  0.24331  1.0000
  O   O821      1.0  0.57681  0.11779  0.20433  1.0000
  O   O822      1.0  0.56848  0.02261  0.28483  1.0000
  O   O823      1.0  0.50029  0.14292  0.26948  1.0000
  O   O824      1.0  0.59589  0.22161  0.21004  1.0000
  O   O825      1.0  0.65106  0.05830  0.21837  1.0000
  O   O826      1.0  0.70181  0.11779  0.20433  1.0000
  O   O827      1.0  0.69348  0.02261  0.28483  1.0000
  O   O828      1.0  0.62529  0.14292  0.26948  1.0000
  O   O829      1.0  0.72089  0.22161  0.21004  1.0000
  O   O830      1.0  0.52606  0.05830  0.21837  1.0000
  Ta  Ta333     1.0  0.50806  0.16603  0.34836  1.0000
  Ta  Ta334     1.0  0.73125  0.01602  0.34548  1.0000
  Ta  Ta335     1.0  0.63306  0.16603  0.34836  1.0000
  Ta  Ta336     1.0  0.60625  0.01602  0.34548  1.0000
  O   O831      1.0  0.73691  0.21424  0.30650  1.0000
  O   O832      1.0  0.72859  0.11906  0.38700  1.0000
  O   O833      1.0  0.66040  0.23937  0.37165  1.0000
  O   O834      1.0  0.50599  0.06806  0.31221  1.0000
  O   O835      1.0  0.56117  0.15475  0.32054  1.0000
  O   O836      1.0  0.61191  0.21424  0.30650  1.0000
  O   O837      1.0  0.60359  0.11906  0.38700  1.0000
  O   O838      1.0  0.53540  0.23937  0.37165  1.0000
  O   O839      1.0  0.63099  0.06806  0.31221  1.0000
  O   O840      1.0  0.68617  0.15475  0.32054  1.0000
  Ta  Ta337     1.0  0.66816  0.01248  0.45053  1.0000
  Ta  Ta338     1.0  0.64136  0.11247  0.44764  1.0000
  Ta  Ta339     1.0  0.54316  0.01248  0.45053  1.0000
  Ta  Ta340     1.0  0.51636  0.11247  0.44764  1.0000
  O   O841      1.0  0.64702  0.06069  0.40867  1.0000
  O   O842      1.0  0.63869  0.21551  0.48916  1.0000
  O   O843      1.0  0.57050  0.08582  0.47381  1.0000
  O   O844      1.0  0.66610  0.16451  0.41438  1.0000
  O   O845      1.0  0.72127  0.00120  0.42270  1.0000
  O   O846      1.0  0.52202  0.06069  0.40867  1.0000
  O   O847      1.0  0.51369  0.21551  0.48916  1.0000
  O   O848      1.0  0.69550  0.08582  0.47381  1.0000
  O   O849      1.0  0.54110  0.16451  0.41438  1.0000
  O   O850      1.0  0.59627  0.00120  0.42270  1.0000
  Ta  Ta341     1.0  0.57827  0.10893  0.55269  1.0000
  Ta  Ta342     1.0  0.55146  0.20892  0.54981  1.0000
  Ta  Ta343     1.0  0.70327  0.10893  0.55269  1.0000
  Ta  Ta344     1.0  0.67646  0.20892  0.54981  1.0000
  O   O851      1.0  0.55712  0.15714  0.51084  1.0000
  O   O852      1.0  0.54880  0.06196  0.59133  1.0000
  O   O853      1.0  0.73060  0.18227  0.57598  1.0000
  O   O854      1.0  0.57620  0.01096  0.51654  1.0000
  O   O855      1.0  0.63138  0.09765  0.52487  1.0000
  O   O856      1.0  0.68212  0.15714  0.51084  1.0000
  O   O857      1.0  0.67380  0.06196  0.59133  1.0000
  O   O858      1.0  0.60560  0.18227  0.57598  1.0000
  O   O859      1.0  0.70120  0.01096  0.51654  1.0000
  O   O860      1.0  0.50638  0.09765  0.52487  1.0000
  Ta  Ta345     1.0  0.73837  0.20538  0.65486  1.0000
  Ta  Ta346     1.0  0.71156  0.05537  0.65198  1.0000
  Ta  Ta347     1.0  0.61337  0.20538  0.65486  1.0000
  Ta  Ta348     1.0  0.58656  0.05537  0.65198  1.0000
  O   O861      1.0  0.71722  0.00359  0.61300  1.0000
  O   O862      1.0  0.70890  0.15841  0.69350  1.0000
  O   O863      1.0  0.64071  0.02872  0.67815  1.0000
  O   O864      1.0  0.73631  0.10741  0.61871  1.0000
  O   O865      1.0  0.54148  0.19410  0.62704  1.0000
  O   O866      1.0  0.59222  0.00359  0.61300  1.0000
  O   O867      1.0  0.58390  0.15841  0.69350  1.0000
  O   O868      1.0  0.51571  0.02872  0.67815  1.0000
  O   O869      1.0  0.61131  0.10741  0.61871  1.0000
  O   O870      1.0  0.66648  0.19410  0.62704  1.0000
  Ta  Ta349     1.0  0.64847  0.05183  0.75703  1.0000
  Ta  Ta350     1.0  0.62167  0.15182  0.75415  1.0000
  Ta  Ta351     1.0  0.52347  0.05183  0.75703  1.0000
  Ta  Ta352     1.0  0.74667  0.15182  0.75415  1.0000
  O   O871      1.0  0.62733  0.10004  0.71517  1.0000
  O   O872      1.0  0.61901  0.00486  0.79567  1.0000
  O   O873      1.0  0.55081  0.12517  0.78032  1.0000
  O   O874      1.0  0.64641  0.20386  0.72088  1.0000
  O   O875      1.0  0.70159  0.04055  0.72921  1.0000
  O   O876      1.0  0.50233  0.10004  0.71517  1.0000
  O   O877      1.0  0.74401  0.00486  0.79567  1.0000
  O   O878      1.0  0.67581  0.12517  0.78032  1.0000
  O   O879      1.0  0.52141  0.20386  0.72088  1.0000
  O   O880      1.0  0.57659  0.04055  0.72921  1.0000
  Ta  Ta353     1.0  0.55858  0.14828  0.85920  1.0000
  Ta  Ta354     1.0  0.53177  0.24827  0.85631  1.0000
  Ta  Ta355     1.0  0.68358  0.14828  0.85920  1.0000
  Ta  Ta356     1.0  0.65677  0.24827  0.85631  1.0000
  O   O881      1.0  0.53743  0.19649  0.81734  1.0000
  O   O882      1.0  0.52911  0.10131  0.89783  1.0000
  O   O883      1.0  0.71092  0.22162  0.88248  1.0000
  O   O884      1.0  0.55652  0.05031  0.82305  1.0000
  O   O885      1.0  0.61169  0.13700  0.83137  1.0000
  O   O886      1.0  0.66243  0.19649  0.81734  1.0000
  O   O887      1.0  0.65411  0.10131  0.89783  1.0000
  O   O888      1.0  0.58592  0.22162  0.88248  1.0000
  O   O889      1.0  0.68152  0.05031  0.82305  1.0000
  O   O890      1.0  0.73669  0.13700  0.83137  1.0000
  Ta  Ta357     1.0  0.71868  0.24473  0.96136  1.0000
  Ta  Ta358     1.0  0.69188  0.09472  0.95848  1.0000
  Ta  Ta359     1.0  0.59368  0.24473  0.96136  1.0000
  Ta  Ta360     1.0  0.56688  0.09472  0.95848  1.0000
  O   O891      1.0  0.69754  0.04294  0.91951  1.0000
  O   O892      1.0  0.68922  0.19776  1.00000  1.0000
  O   O893      1.0  0.62102  0.06807  0.98465  1.0000
  O   O894      1.0  0.71662  0.14676  0.92521  1.0000
  O   O895      1.0  0.52180  0.23345  0.93354  1.0000
  O   O896      1.0  0.57254  0.04294  0.91951  1.0000
  O   O897      1.0  0.56422  0.19776  1.00000  1.0000
  O   O898      1.0  0.74602  0.06807  0.98465  1.0000
  O   O899      1.0  0.59162  0.14676  0.92521  1.0000
  O   O900      1.0  0.64680  0.23345  0.93354  1.0000
  Ta  Ta361     1.0  0.52774  0.37668  0.04186  1.0000
  Ta  Ta362     1.0  0.50094  0.47667  0.03897  1.0000
  Ta  Ta363     1.0  0.65274  0.37668  0.04186  1.0000
  Ta  Ta364     1.0  0.62594  0.47667  0.03897  1.0000
  O   O901      1.0  0.50660  0.42489  -0.00000  1.0000
  O   O902      1.0  0.74827  0.32971  0.08049  1.0000
  O   O903      1.0  0.68008  0.45002  0.06514  1.0000
  O   O904      1.0  0.52568  0.27871  0.00571  1.0000
  O   O905      1.0  0.58085  0.36540  0.01404  1.0000
  O   O906      1.0  0.63160  0.42489  0.00000  1.0000
  O   O907      1.0  0.62327  0.32971  0.08049  1.0000
  O   O908      1.0  0.55508  0.45002  0.06514  1.0000
  O   O909      1.0  0.65068  0.27871  0.00571  1.0000
  O   O910      1.0  0.70585  0.36540  0.01404  1.0000
  Ta  Ta365     1.0  0.68785  0.47313  0.14402  1.0000
  Ta  Ta366     1.0  0.66104  0.32312  0.14114  1.0000
  Ta  Ta367     1.0  0.56285  0.47313  0.14402  1.0000
  Ta  Ta368     1.0  0.53604  0.32312  0.14114  1.0000
  O   O911      1.0  0.66670  0.27134  0.10217  1.0000
  O   O912      1.0  0.65838  0.42616  0.18266  1.0000
  O   O913      1.0  0.59019  0.29647  0.16731  1.0000
  O   O914      1.0  0.68578  0.37516  0.10788  1.0000
  O   O915      1.0  0.74096  0.46185  0.11620  1.0000
  O   O916      1.0  0.54170  0.27134  0.10217  1.0000
  O   O917      1.0  0.53338  0.42616  0.18266  1.0000
  O   O918      1.0  0.71519  0.29647  0.16731  1.0000
  O   O919      1.0  0.56078  0.37516  0.10788  1.0000
  O   O920      1.0  0.61596  0.46185  0.11620  1.0000
  Ta  Ta369     1.0  0.59795  0.31958  0.24619  1.0000
  Ta  Ta370     1.0  0.57115  0.41957  0.24331  1.0000
  Ta  Ta371     1.0  0.72295  0.31958  0.24619  1.0000
  Ta  Ta372     1.0  0.69615  0.41957  0.24331  1.0000
  O   O921      1.0  0.57681  0.36779  0.20433  1.0000
  O   O922      1.0  0.56848  0.27261  0.28483  1.0000
  O   O923      1.0  0.50029  0.39292  0.26948  1.0000
  O   O924      1.0  0.59589  0.47161  0.21004  1.0000
  O   O925      1.0  0.65106  0.30830  0.21837  1.0000
  O   O926      1.0  0.70181  0.36779  0.20433  1.0000
  O   O927      1.0  0.69348  0.27261  0.28483  1.0000
  O   O928      1.0  0.62529  0.39292  0.26948  1.0000
  O   O929      1.0  0.72089  0.47161  0.21004  1.0000
  O   O930      1.0  0.52606  0.30830  0.21837  1.0000
  Ta  Ta373     1.0  0.50806  0.41603  0.34836  1.0000
  Ta  Ta374     1.0  0.73125  0.26602  0.34548  1.0000
  Ta  Ta375     1.0  0.63306  0.41603  0.34836  1.0000
  Ta  Ta376     1.0  0.60625  0.26602  0.34548  1.0000
  O   O931      1.0  0.73691  0.46424  0.30650  1.0000
  O   O932      1.0  0.72859  0.36906  0.38700  1.0000
  O   O933      1.0  0.66040  0.48937  0.37165  1.0000
  O   O934      1.0  0.50599  0.31806  0.31221  1.0000
  O   O935      1.0  0.56117  0.40475  0.32054  1.0000
  O   O936      1.0  0.61191  0.46424  0.30650  1.0000
  O   O937      1.0  0.60359  0.36906  0.38700  1.0000
  O   O938      1.0  0.53540  0.48937  0.37165  1.0000
  O   O939      1.0  0.63099  0.31806  0.31221  1.0000
  O   O940      1.0  0.68617  0.40475  0.32054  1.0000
  Ta  Ta377     1.0  0.66816  0.26248  0.45053  1.0000
  Ta  Ta378     1.0  0.64136  0.36247  0.44764  1.0000
  Ta  Ta379     1.0  0.54316  0.26248  0.45053  1.0000
  Ta  Ta380     1.0  0.51636  0.36247  0.44764  1.0000
  O   O941      1.0  0.64702  0.31069  0.40867  1.0000
  O   O942      1.0  0.63869  0.46551  0.48916  1.0000
  O   O943      1.0  0.57050  0.33582  0.47381  1.0000
  O   O944      1.0  0.66610  0.41451  0.41438  1.0000
  O   O945      1.0  0.72127  0.25120  0.42270  1.0000
  O   O946      1.0  0.52202  0.31069  0.40867  1.0000
  O   O947      1.0  0.51369  0.46551  0.48916  1.0000
  O   O948      1.0  0.69550  0.33582  0.47381  1.0000
  O   O949      1.0  0.54110  0.41451  0.41438  1.0000
  O   O950      1.0  0.59627  0.25120  0.42270  1.0000
  Ta  Ta381     1.0  0.57827  0.35893  0.55269  1.0000
  Ta  Ta382     1.0  0.55146  0.45892  0.54981  1.0000
  Ta  Ta383     1.0  0.70327  0.35893  0.55269  1.0000
  Ta  Ta384     1.0  0.67646  0.45892  0.54981  1.0000
  O   O951      1.0  0.55712  0.40714  0.51084  1.0000
  O   O952      1.0  0.54880  0.31196  0.59133  1.0000
  O   O953      1.0  0.73060  0.43227  0.57598  1.0000
  O   O954      1.0  0.57620  0.26096  0.51654  1.0000
  O   O955      1.0  0.63138  0.34765  0.52487  1.0000
  O   O956      1.0  0.68212  0.40714  0.51084  1.0000
  O   O957      1.0  0.67380  0.31196  0.59133  1.0000
  O   O958      1.0  0.60560  0.43227  0.57598  1.0000
  O   O959      1.0  0.70120  0.26096  0.51654  1.0000
  O   O960      1.0  0.50638  0.34765  0.52487  1.0000
  Ta  Ta385     1.0  0.73837  0.45538  0.65486  1.0000
  Ta  Ta386     1.0  0.71156  0.30537  0.65198  1.0000
  Ta  Ta387     1.0  0.61337  0.45538  0.65486  1.0000
  Ta  Ta388     1.0  0.58656  0.30537  0.65198  1.0000
  O   O961      1.0  0.71722  0.25359  0.61300  1.0000
  O   O962      1.0  0.70890  0.40841  0.69350  1.0000
  O   O963      1.0  0.64071  0.27872  0.67815  1.0000
  O   O964      1.0  0.73631  0.35741  0.61871  1.0000
  O   O965      1.0  0.54148  0.44410  0.62704  1.0000
  O   O966      1.0  0.59222  0.25359  0.61300  1.0000
  O   O967      1.0  0.58390  0.40841  0.69350  1.0000
  O   O968      1.0  0.51571  0.27872  0.67815  1.0000
  O   O969      1.0  0.61131  0.35741  0.61871  1.0000
  O   O970      1.0  0.66648  0.44410  0.62704  1.0000
  Ta  Ta389     1.0  0.64847  0.30183  0.75703  1.0000
  Ta  Ta390     1.0  0.62167  0.40182  0.75415  1.0000
  Ta  Ta391     1.0  0.52347  0.30183  0.75703  1.0000
  Ta  Ta392     1.0  0.74667  0.40182  0.75415  1.0000
  O   O971      1.0  0.62733  0.35004  0.71517  1.0000
  O   O972      1.0  0.61901  0.25486  0.79567  1.0000
  O   O973      1.0  0.55081  0.37517  0.78032  1.0000
  O   O974      1.0  0.64641  0.45386  0.72088  1.0000
  O   O975      1.0  0.70159  0.29055  0.72921  1.0000
  O   O976      1.0  0.50233  0.35004  0.71517  1.0000
  O   O977      1.0  0.74401  0.25486  0.79567  1.0000
  O   O978      1.0  0.67581  0.37517  0.78032  1.0000
  O   O979      1.0  0.52141  0.45386  0.72088  1.0000
  O   O980      1.0  0.57659  0.29055  0.72921  1.0000
  Ta  Ta393     1.0  0.55858  0.39828  0.85920  1.0000
  Ta  Ta394     1.0  0.53177  0.49827  0.85631  1.0000
  Ta  Ta395     1.0  0.68358  0.39828  0.85920  1.0000
  Ta  Ta396     1.0  0.65677  0.49827  0.85631  1.0000
  O   O981      1.0  0.53743  0.44649  0.81734  1.0000
  O   O982      1.0  0.52911  0.35131  0.89783  1.0000
  O   O983      1.0  0.71092  0.47162  0.88248  1.0000
  O   O984      1.0  0.55652  0.30031  0.82305  1.0000
  O   O985      1.0  0.61169  0.38700  0.83137  1.0000
  O   O986      1.0  0.66243  0.44649  0.81734  1.0000
  O   O987      1.0  0.65411  0.35131  0.89783  1.0000
  O   O988      1.0  0.58592  0.47162  0.88248  1.0000
  O   O989      1.0  0.68152  0.30031  0.82305  1.0000
  O   O990      1.0  0.73669  0.38700  0.83137  1.0000
  Ta  Ta397     1.0  0.71868  0.49473  0.96136  1.0000
  Ta  Ta398     1.0  0.69188  0.34472  0.95848  1.0000
  Ta  Ta399     1.0  0.59368  0.49473  0.96136  1.0000
  Ta  Ta400     1.0  0.56688  0.34472  0.95848  1.0000
  O   O991      1.0  0.69754  0.29294  0.91951  1.0000
  O   O992      1.0  0.68922  0.44776  1.00000  1.0000
  O   O993      1.0  0.62102  0.31807  0.98465  1.0000
  O   O994      1.0  0.71662  0.39676  0.92521  1.0000
  O   O995      1.0  0.52180  0.48345  0.93354  1.0000
  O   O996      1.0  0.57254  0.29294  0.91951  1.0000
  O   O997      1.0  0.56422  0.44776  1.00000  1.0000
  O   O998      1.0  0.74602  0.31807  0.98465  1.0000
  O   O999      1.0  0.59162  0.39676  0.92521  1.0000
  O   O1000     1.0  0.64680  0.48345  0.93354  1.0000
  Ta  Ta401     1.0  0.52774  0.62668  0.04186  1.0000
  Ta  Ta402     1.0  0.50094  0.72667  0.03897  1.0000
  Ta  Ta403     1.0  0.65274  0.62668  0.04186  1.0000
  Ta  Ta404     1.0  0.62594  0.72667  0.03897  1.0000
  O   O1001     1.0  0.50660  0.67489  -0.00000  1.0000
  O   O1002     1.0  0.74827  0.57971  0.08049  1.0000
  O   O1003     1.0  0.68008  0.70002  0.06514  1.0000
  O   O1004     1.0  0.52568  0.52871  0.00571  1.0000
  O   O1005     1.0  0.58085  0.61540  0.01404  1.0000
  O   O1006     1.0  0.63160  0.67489  0.00000  1.0000
  O   O1007     1.0  0.62327  0.57971  0.08049  1.0000
  O   O1008     1.0  0.55508  0.70002  0.06514  1.0000
  O   O1009     1.0  0.65068  0.52871  0.00571  1.0000
  O   O1010     1.0  0.70585  0.61540  0.01404  1.0000
  Ta  Ta405     1.0  0.68785  0.72313  0.14402  1.0000
  Ta  Ta406     1.0  0.66104  0.57312  0.14114  1.0000
  Ta  Ta407     1.0  0.56285  0.72313  0.14402  1.0000
  Ta  Ta408     1.0  0.53604  0.57312  0.14114  1.0000
  O   O1011     1.0  0.66670  0.52134  0.10217  1.0000
  O   O1012     1.0  0.65838  0.67616  0.18266  1.0000
  O   O1013     1.0  0.59019  0.54647  0.16731  1.0000
  O   O1014     1.0  0.68578  0.62516  0.10788  1.0000
  O   O1015     1.0  0.74096  0.71185  0.11620  1.0000
  O   O1016     1.0  0.54170  0.52134  0.10217  1.0000
  O   O1017     1.0  0.53338  0.67616  0.18266  1.0000
  O   O1018     1.0  0.71519  0.54647  0.16731  1.0000
  O   O1019     1.0  0.56078  0.62516  0.10788  1.0000
  O   O1020     1.0  0.61596  0.71185  0.11620  1.0000
  Ta  Ta409     1.0  0.59795  0.56958  0.24619  1.0000
  Ta  Ta410     1.0  0.57115  0.66957  0.24331  1.0000
  Ta  Ta411     1.0  0.72295  0.56958  0.24619  1.0000
  Ta  Ta412     1.0  0.69615  0.66957  0.24331  1.0000
  O   O1021     1.0  0.57681  0.61779  0.20433  1.0000
  O   O1022     1.0  0.56848  0.52261  0.28483  1.0000
  O   O1023     1.0  0.50029  0.64292  0.26948  1.0000
  O   O1024     1.0  0.59589  0.72161  0.21004  1.0000
  O   O1025     1.0  0.65106  0.55830  0.21837  1.0000
  O   O1026     1.0  0.70181  0.61779  0.20433  1.0000
  O   O1027     1.0  0.69348  0.52261  0.28483  1.0000
  O   O1028     1.0  0.62529  0.64292  0.26948  1.0000
  O   O1029     1.0  0.72089  0.72161  0.21004  1.0000
  O   O1030     1.0  0.52606  0.55830  0.21837  1.0000
  Ta  Ta413     1.0  0.50806  0.66603  0.34836  1.0000
  Ta  Ta414     1.0  0.73125  0.51602  0.34548  1.0000
  Ta  Ta415     1.0  0.63306  0.66603  0.34836  1.0000
  Ta  Ta416     1.0  0.60625  0.51602  0.34548  1.0000
  O   O1031     1.0  0.73691  0.71424  0.30650  1.0000
  O   O1032     1.0  0.72859  0.61906  0.38700  1.0000
  O   O1033     1.0  0.66040  0.73937  0.37165  1.0000
  O   O1034     1.0  0.50599  0.56806  0.31221  1.0000
  O   O1035     1.0  0.56117  0.65475  0.32054  1.0000
  O   O1036     1.0  0.61191  0.71424  0.30650  1.0000
  O   O1037     1.0  0.60359  0.61906  0.38700  1.0000
  O   O1038     1.0  0.53540  0.73937  0.37165  1.0000
  O   O1039     1.0  0.63099  0.56806  0.31221  1.0000
  O   O1040     1.0  0.68617  0.65475  0.32054  1.0000
  Ta  Ta417     1.0  0.66816  0.51248  0.45053  1.0000
  Ta  Ta418     1.0  0.64136  0.61247  0.44764  1.0000
  Ta  Ta419     1.0  0.54316  0.51248  0.45053  1.0000
  Ta  Ta420     1.0  0.51636  0.61247  0.44764  1.0000
  O   O1041     1.0  0.64702  0.56069  0.40867  1.0000
  O   O1042     1.0  0.63869  0.71551  0.48916  1.0000
  O   O1043     1.0  0.57050  0.58582  0.47381  1.0000
  O   O1044     1.0  0.66610  0.66451  0.41438  1.0000
  O   O1045     1.0  0.72127  0.50120  0.42270  1.0000
  O   O1046     1.0  0.52202  0.56069  0.40867  1.0000
  O   O1047     1.0  0.51369  0.71551  0.48916  1.0000
  O   O1048     1.0  0.69550  0.58582  0.47381  1.0000
  O   O1049     1.0  0.54110  0.66451  0.41438  1.0000
  O   O1050     1.0  0.59627  0.50120  0.42270  1.0000
  Ta  Ta421     1.0  0.57827  0.60893  0.55269  1.0000
  Ta  Ta422     1.0  0.55146  0.70892  0.54981  1.0000
  Ta  Ta423     1.0  0.70327  0.60893  0.55269  1.0000
  Ta  Ta424     1.0  0.67646  0.70892  0.54981  1.0000
  O   O1051     1.0  0.55712  0.65714  0.51084  1.0000
  O   O1052     1.0  0.54880  0.56196  0.59133  1.0000
  O   O1053     1.0  0.73060  0.68227  0.57598  1.0000
  O   O1054     1.0  0.57620  0.51096  0.51654  1.0000
  O   O1055     1.0  0.63138  0.59765  0.52487  1.0000
  O   O1056     1.0  0.68212  0.65714  0.51084  1.0000
  O   O1057     1.0  0.67380  0.56196  0.59133  1.0000
  O   O1058     1.0  0.60560  0.68227  0.57598  1.0000
  O   O1059     1.0  0.70120  0.51096  0.51654  1.0000
  O   O1060     1.0  0.50638  0.59765  0.52487  1.0000
  Ta  Ta425     1.0  0.73837  0.70538  0.65486  1.0000
  Ta  Ta426     1.0  0.71156  0.55537  0.65198  1.0000
  Ta  Ta427     1.0  0.61337  0.70538  0.65486  1.0000
  Ta  Ta428     1.0  0.58656  0.55537  0.65198  1.0000
  O   O1061     1.0  0.71722  0.50359  0.61300  1.0000
  O   O1062     1.0  0.70890  0.65841  0.69350  1.0000
  O   O1063     1.0  0.64071  0.52872  0.67815  1.0000
  O   O1064     1.0  0.73631  0.60741  0.61871  1.0000
  O   O1065     1.0  0.54148  0.69410  0.62704  1.0000
  O   O1066     1.0  0.59222  0.50359  0.61300  1.0000
  O   O1067     1.0  0.58390  0.65841  0.69350  1.0000
  O   O1068     1.0  0.51571  0.52872  0.67815  1.0000
  O   O1069     1.0  0.61131  0.60741  0.61871  1.0000
  O   O1070     1.0  0.66648  0.69410  0.62704  1.0000
  Ta  Ta429     1.0  0.64847  0.55183  0.75703  1.0000
  Ta  Ta430     1.0  0.62167  0.65182  0.75415  1.0000
  Ta  Ta431     1.0  0.52347  0.55183  0.75703  1.0000
  Ta  Ta432     1.0  0.74667  0.65182  0.75415  1.0000
  O   O1071     1.0  0.62733  0.60004  0.71517  1.0000
  O   O1072     1.0  0.61901  0.50486  0.79567  1.0000
  O   O1073     1.0  0.55081  0.62517  0.78032  1.0000
  O   O1074     1.0  0.64641  0.70386  0.72088  1.0000
  O   O1075     1.0  0.70159  0.54055  0.72921  1.0000
  O   O1076     1.0  0.50233  0.60004  0.71517  1.0000
  O   O1077     1.0  0.74401  0.50486  0.79567  1.0000
  O   O1078     1.0  0.67581  0.62517  0.78032  1.0000
  O   O1079     1.0  0.52141  0.70386  0.72088  1.0000
  O   O1080     1.0  0.57659  0.54055  0.72921  1.0000
  Ta  Ta433     1.0  0.55858  0.64828  0.85920  1.0000
  Ta  Ta434     1.0  0.53177  0.74827  0.85631  1.0000
  Ta  Ta435     1.0  0.68358  0.64828  0.85920  1.0000
  Ta  Ta436     1.0  0.65677  0.74827  0.85631  1.0000
  O   O1081     1.0  0.53743  0.69649  0.81734  1.0000
  O   O1082     1.0  0.52911  0.60131  0.89783  1.0000
  O   O1083     1.0  0.71092  0.72162  0.88248  1.0000
  O   O1084     1.0  0.55652  0.55031  0.82305  1.0000
  O   O1085     1.0  0.61169  0.63700  0.83137  1.0000
  O   O1086     1.0  0.66243  0.69649  0.81734  1.0000
  O   O1087     1.0  0.65411  0.60131  0.89783  1.0000
  O   O1088     1.0  0.58592  0.72162  0.88248  1.0000
  O   O1089     1.0  0.68152  0.55031  0.82305  1.0000
  O   O1090     1.0  0.73669  0.63700  0.83137  1.0000
  Ta  Ta437     1.0  0.71868  0.74473  0.96136  1.0000
  Ta  Ta438     1.0  0.69188  0.59472  0.95848  1.0000
  Ta  Ta439     1.0  0.59368  0.74473  0.96136  1.0000
  Ta  Ta440     1.0  0.56688  0.59472  0.95848  1.0000
  O   O1091     1.0  0.69754  0.54294  0.91951  1.0000
  O   O1092     1.0  0.68922  0.69776  1.00000  1.0000
  O   O1093     1.0  0.62102  0.56807  0.98465  1.0000
  O   O1094     1.0  0.71662  0.64676  0.92521  1.0000
  O   O1095     1.0  0.52180  0.73345  0.93354  1.0000
  O   O1096     1.0  0.57254  0.54294  0.91951  1.0000
  O   O1097     1.0  0.56422  0.69776  1.00000  1.0000
  O   O1098     1.0  0.74602  0.56807  0.98465  1.0000
  O   O1099     1.0  0.59162  0.64676  0.92521  1.0000
  O   O1100     1.0  0.64680  0.73345  0.93354  1.0000
  Ta  Ta441     1.0  0.52774  0.87668  0.04186  1.0000
  Ta  Ta442     1.0  0.50094  0.97667  0.03897  1.0000
  Ta  Ta443     1.0  0.65274  0.87668  0.04186  1.0000
  Ta  Ta444     1.0  0.62594  0.97667  0.03897  1.0000
  O   O1101     1.0  0.50660  0.92489  -0.00000  1.0000
  O   O1102     1.0  0.74827  0.82971  0.08049  1.0000
  O   O1103     1.0  0.68008  0.95002  0.06514  1.0000
  O   O1104     1.0  0.52568  0.77871  0.00571  1.0000
  O   O1105     1.0  0.58085  0.86540  0.01404  1.0000
  O   O1106     1.0  0.63160  0.92489  0.00000  1.0000
  O   O1107     1.0  0.62327  0.82971  0.08049  1.0000
  O   O1108     1.0  0.55508  0.95002  0.06514  1.0000
  O   O1109     1.0  0.65068  0.77871  0.00571  1.0000
  O   O1110     1.0  0.70585  0.86540  0.01404  1.0000
  Ta  Ta445     1.0  0.68785  0.97313  0.14402  1.0000
  Ta  Ta446     1.0  0.66104  0.82312  0.14114  1.0000
  Ta  Ta447     1.0  0.56285  0.97313  0.14402  1.0000
  Ta  Ta448     1.0  0.53604  0.82312  0.14114  1.0000
  O   O1111     1.0  0.66670  0.77134  0.10217  1.0000
  O   O1112     1.0  0.65838  0.92616  0.18266  1.0000
  O   O1113     1.0  0.59019  0.79647  0.16731  1.0000
  O   O1114     1.0  0.68578  0.87516  0.10788  1.0000
  O   O1115     1.0  0.74096  0.96185  0.11620  1.0000
  O   O1116     1.0  0.54170  0.77134  0.10217  1.0000
  O   O1117     1.0  0.53338  0.92616  0.18266  1.0000
  O   O1118     1.0  0.71519  0.79647  0.16731  1.0000
  O   O1119     1.0  0.56078  0.87516  0.10788  1.0000
  O   O1120     1.0  0.61596  0.96185  0.11620  1.0000
  Ta  Ta449     1.0  0.59795  0.81958  0.24619  1.0000
  Ta  Ta450     1.0  0.57115  0.91957  0.24331  1.0000
  Ta  Ta451     1.0  0.72295  0.81958  0.24619  1.0000
  Ta  Ta452     1.0  0.69615  0.91957  0.24331  1.0000
  O   O1121     1.0  0.57681  0.86779  0.20433  1.0000
  O   O1122     1.0  0.56848  0.77261  0.28483  1.0000
  O   O1123     1.0  0.50029  0.89292  0.26948  1.0000
  O   O1124     1.0  0.59589  0.97161  0.21004  1.0000
  O   O1125     1.0  0.65106  0.80830  0.21837  1.0000
  O   O1126     1.0  0.70181  0.86779  0.20433  1.0000
  O   O1127     1.0  0.69348  0.77261  0.28483  1.0000
  O   O1128     1.0  0.62529  0.89292  0.26948  1.0000
  O   O1129     1.0  0.72089  0.97161  0.21004  1.0000
  O   O1130     1.0  0.52606  0.80830  0.21837  1.0000
  Ta  Ta453     1.0  0.50806  0.91603  0.34836  1.0000
  Ta  Ta454     1.0  0.73125  0.76602  0.34548  1.0000
  Ta  Ta455     1.0  0.63306  0.91603  0.34836  1.0000
  Ta  Ta456     1.0  0.60625  0.76602  0.34548  1.0000
  O   O1131     1.0  0.73691  0.96424  0.30650  1.0000
  O   O1132     1.0  0.72859  0.86906  0.38700  1.0000
  O   O1133     1.0  0.66040  0.98937  0.37165  1.0000
  O   O1134     1.0  0.50599  0.81806  0.31221  1.0000
  O   O1135     1.0  0.56117  0.90475  0.32054  1.0000
  O   O1136     1.0  0.61191  0.96424  0.30650  1.0000
  O   O1137     1.0  0.60359  0.86906  0.38700  1.0000
  O   O1138     1.0  0.53540  0.98937  0.37165  1.0000
  O   O1139     1.0  0.63099  0.81806  0.31221  1.0000
  O   O1140     1.0  0.68617  0.90475  0.32054  1.0000
  Ta  Ta457     1.0  0.66816  0.76248  0.45053  1.0000
  Ta  Ta458     1.0  0.64136  0.86247  0.44764  1.0000
  Ta  Ta459     1.0  0.54316  0.76248  0.45053  1.0000
  Ta  Ta460     1.0  0.51636  0.86247  0.44764  1.0000
  O   O1141     1.0  0.64702  0.81069  0.40867  1.0000
  O   O1142     1.0  0.63869  0.96551  0.48916  1.0000
  O   O1143     1.0  0.57050  0.83582  0.47381  1.0000
  O   O1144     1.0  0.66610  0.91451  0.41438  1.0000
  O   O1145     1.0  0.72127  0.75120  0.42270  1.0000
  O   O1146     1.0  0.52202  0.81069  0.40867  1.0000
  O   O1147     1.0  0.51369  0.96551  0.48916  1.0000
  O   O1148     1.0  0.69550  0.83582  0.47381  1.0000
  O   O1149     1.0  0.54110  0.91451  0.41438  1.0000
  O   O1150     1.0  0.59627  0.75120  0.42270  1.0000
  Ta  Ta461     1.0  0.57827  0.85893  0.55269  1.0000
  Ta  Ta462     1.0  0.55146  0.95892  0.54981  1.0000
  Ta  Ta463     1.0  0.70327  0.85893  0.55269  1.0000
  Ta  Ta464     1.0  0.67646  0.95892  0.54981  1.0000
  O   O1151     1.0  0.55712  0.90714  0.51084  1.0000
  O   O1152     1.0  0.54880  0.81196  0.59133  1.0000
  O   O1153     1.0  0.73060  0.93227  0.57598  1.0000
  O   O1154     1.0  0.57620  0.76096  0.51654  1.0000
  O   O1155     1.0  0.63138  0.84765  0.52487  1.0000
  O   O1156     1.0  0.68212  0.90714  0.51084  1.0000
  O   O1157     1.0  0.67380  0.81196  0.59133  1.0000
  O   O1158     1.0  0.60560  0.93227  0.57598  1.0000
  O   O1159     1.0  0.70120  0.76096  0.51654  1.0000
  O   O1160     1.0  0.50638  0.84765  0.52487  1.0000
  Ta  Ta465     1.0  0.73837  0.95538  0.65486  1.0000
  Ta  Ta466     1.0  0.71156  0.80537  0.65198  1.0000
  Ta  Ta467     1.0  0.61337  0.95538  0.65486  1.0000
  Ta  Ta468     1.0  0.58656  0.80537  0.65198  1.0000
  O   O1161     1.0  0.71722  0.75359  0.61300  1.0000
  O   O1162     1.0  0.70890  0.90841  0.69350  1.0000
  O   O1163     1.0  0.64071  0.77872  0.67815  1.0000
  O   O1164     1.0  0.73631  0.85741  0.61871  1.0000
  O   O1165     1.0  0.54148  0.94410  0.62704  1.0000
  O   O1166     1.0  0.59222  0.75359  0.61300  1.0000
  O   O1167     1.0  0.58390  0.90841  0.69350  1.0000
  O   O1168     1.0  0.51571  0.77872  0.67815  1.0000
  O   O1169     1.0  0.61131  0.85741  0.61871  1.0000
  O   O1170     1.0  0.66648  0.94410  0.62704  1.0000
  Ta  Ta469     1.0  0.64847  0.80183  0.75703  1.0000
  Ta  Ta470     1.0  0.62167  0.90182  0.75415  1.0000
  Ta  Ta471     1.0  0.52347  0.80183  0.75703  1.0000
  Ta  Ta472     1.0  0.74667  0.90182  0.75415  1.0000
  O   O1171     1.0  0.62733  0.85004  0.71517  1.0000
  O   O1172     1.0  0.61901  0.75486  0.79567  1.0000
  O   O1173     1.0  0.55081  0.87517  0.78032  1.0000
  O   O1174     1.0  0.64641  0.95386  0.72088  1.0000
  O   O1175     1.0  0.70159  0.79055  0.72921  1.0000
  O   O1176     1.0  0.50233  0.85004  0.71517  1.0000
  O   O1177     1.0  0.74401  0.75486  0.79567  1.0000
  O   O1178     1.0  0.67581  0.87517  0.78032  1.0000
  O   O1179     1.0  0.52141  0.95386  0.72088  1.0000
  O   O1180     1.0  0.57659  0.79055  0.72921  1.0000
  Ta  Ta473     1.0  0.55858  0.89828  0.85920  1.0000
  Ta  Ta474     1.0  0.53177  0.99827  0.85631  1.0000
  Ta  Ta475     1.0  0.68358  0.89828  0.85920  1.0000
  Ta  Ta476     1.0  0.65677  0.99827  0.85631  1.0000
  O   O1181     1.0  0.53743  0.94649  0.81734  1.0000
  O   O1182     1.0  0.52911  0.85131  0.89783  1.0000
  O   O1183     1.0  0.71092  0.97162  0.88248  1.0000
  O   O1184     1.0  0.55652  0.80031  0.82305  1.0000
  O   O1185     1.0  0.61169  0.88700  0.83137  1.0000
  O   O1186     1.0  0.66243  0.94649  0.81734  1.0000
  O   O1187     1.0  0.65411  0.85131  0.89783  1.0000
  O   O1188     1.0  0.58592  0.97162  0.88248  1.0000
  O   O1189     1.0  0.68152  0.80031  0.82305  1.0000
  O   O1190     1.0  0.73669  0.88700  0.83137  1.0000
  Ta  Ta477     1.0  0.71868  0.99473  0.96136  1.0000
  Ta  Ta478     1.0  0.69188  0.84472  0.95848  1.0000
  Ta  Ta479     1.0  0.59368  0.99473  0.96136  1.0000
  Ta  Ta480     1.0  0.56688  0.84472  0.95848  1.0000
  O   O1191     1.0  0.69754  0.79294  0.91951  1.0000
  O   O1192     1.0  0.68922  0.94776  1.00000  1.0000
  O   O1193     1.0  0.62102  0.81807  0.98465  1.0000
  O   O1194     1.0  0.71662  0.89676  0.92521  1.0000
  O   O1195     1.0  0.52180  0.98345  0.93354  1.0000
  O   O1196     1.0  0.57254  0.79294  0.91951  1.0000
  O   O1197     1.0  0.56422  0.94776  1.00000  1.0000
  O   O1198     1.0  0.74602  0.81807  0.98465  1.0000
  O   O1199     1.0  0.59162  0.89676  0.92521  1.0000
  O   O1200     1.0  0.64680  0.98345  0.93354  1.0000
  Ta  Ta481     1.0  0.77774  0.12668  0.04186  1.0000
  Ta  Ta482     1.0  0.75094  0.22667  0.03897  1.0000
  Ta  Ta483     1.0  0.90274  0.12668  0.04186  1.0000
  Ta  Ta484     1.0  0.87594  0.22667  0.03897  1.0000
  O   O1201     1.0  0.75660  0.17489  -0.00000  1.0000
  O   O1202     1.0  0.99827  0.07971  0.08049  1.0000
  O   O1203     1.0  0.93008  0.20002  0.06514  1.0000
  O   O1204     1.0  0.77568  0.02871  0.00571  1.0000
  O   O1205     1.0  0.83085  0.11540  0.01404  1.0000
  O   O1206     1.0  0.88160  0.17489  0.00000  1.0000
  O   O1207     1.0  0.87327  0.07971  0.08049  1.0000
  O   O1208     1.0  0.80508  0.20002  0.06514  1.0000
  O   O1209     1.0  0.90068  0.02871  0.00571  1.0000
  O   O1210     1.0  0.95585  0.11540  0.01404  1.0000
  Ta  Ta485     1.0  0.93785  0.22313  0.14402  1.0000
  Ta  Ta486     1.0  0.91104  0.07312  0.14114  1.0000
  Ta  Ta487     1.0  0.81285  0.22313  0.14402  1.0000
  Ta  Ta488     1.0  0.78604  0.07312  0.14114  1.0000
  O   O1211     1.0  0.91670  0.02134  0.10217  1.0000
  O   O1212     1.0  0.90838  0.17616  0.18266  1.0000
  O   O1213     1.0  0.84019  0.04647  0.16731  1.0000
  O   O1214     1.0  0.93578  0.12516  0.10788  1.0000
  O   O1215     1.0  0.99096  0.21185  0.11620  1.0000
  O   O1216     1.0  0.79170  0.02134  0.10217  1.0000
  O   O1217     1.0  0.78338  0.17616  0.18266  1.0000
  O   O1218     1.0  0.96519  0.04647  0.16731  1.0000
  O   O1219     1.0  0.81078  0.12516  0.10788  1.0000
  O   O1220     1.0  0.86596  0.21185  0.11620  1.0000
  Ta  Ta489     1.0  0.84795  0.06958  0.24619  1.0000
  Ta  Ta490     1.0  0.82115  0.16957  0.24331  1.0000
  Ta  Ta491     1.0  0.97295  0.06958  0.24619  1.0000
  Ta  Ta492     1.0  0.94615  0.16957  0.24331  1.0000
  O   O1221     1.0  0.82681  0.11779  0.20433  1.0000
  O   O1222     1.0  0.81848  0.02261  0.28483  1.0000
  O   O1223     1.0  0.75029  0.14292  0.26948  1.0000
  O   O1224     1.0  0.84589  0.22161  0.21004  1.0000
  O   O1225     1.0  0.90106  0.05830  0.21837  1.0000
  O   O1226     1.0  0.95181  0.11779  0.20433  1.0000
  O   O1227     1.0  0.94348  0.02261  0.28483  1.0000
  O   O1228     1.0  0.87529  0.14292  0.26948  1.0000
  O   O1229     1.0  0.97089  0.22161  0.21004  1.0000
  O   O1230     1.0  0.77606  0.05830  0.21837  1.0000
  Ta  Ta493     1.0  0.75806  0.16603  0.34836  1.0000
  Ta  Ta494     1.0  0.98125  0.01602  0.34548  1.0000
  Ta  Ta495     1.0  0.88306  0.16603  0.34836  1.0000
  Ta  Ta496     1.0  0.85625  0.01602  0.34548  1.0000
  O   O1231     1.0  0.98691  0.21424  0.30650  1.0000
  O   O1232     1.0  0.97859  0.11906  0.38700  1.0000
  O   O1233     1.0  0.91040  0.23937  0.37165  1.0000
  O   O1234     1.0  0.75599  0.06806  0.31221  1.0000
  O   O1235     1.0  0.81117  0.15475  0.32054  1.0000
  O   O1236     1.0  0.86191  0.21424  0.30650  1.0000
  O   O1237     1.0  0.85359  0.11906  0.38700  1.0000
  O   O1238     1.0  0.78540  0.23937  0.37165  1.0000
  O   O1239     1.0  0.88099  0.06806  0.31221  1.0000
  O   O1240     1.0  0.93617  0.15475  0.32054  1.0000
  Ta  Ta497     1.0  0.91816  0.01248  0.45053  1.0000
  Ta  Ta498     1.0  0.89136  0.11247  0.44764  1.0000
  Ta  Ta499     1.0  0.79316  0.01248  0.45053  1.0000
  Ta  Ta500     1.0  0.76636  0.11247  0.44764  1.0000
  O   O1241     1.0  0.89702  0.06069  0.40867  1.0000
  O   O1242     1.0  0.88869  0.21551  0.48916  1.0000
  O   O1243     1.0  0.82050  0.08582  0.47381  1.0000
  O   O1244     1.0  0.91610  0.16451  0.41438  1.0000
  O   O1245     1.0  0.97127  0.00120  0.42270  1.0000
  O   O1246     1.0  0.77202  0.06069  0.40867  1.0000
  O   O1247     1.0  0.76369  0.21551  0.48916  1.0000
  O   O1248     1.0  0.94550  0.08582  0.47381  1.0000
  O   O1249     1.0  0.79110  0.16451  0.41438  1.0000
  O   O1250     1.0  0.84627  0.00120  0.42270  1.0000
  Ta  Ta501     1.0  0.82827  0.10893  0.55269  1.0000
  Ta  Ta502     1.0  0.80146  0.20892  0.54981  1.0000
  Ta  Ta503     1.0  0.95327  0.10893  0.55269  1.0000
  Ta  Ta504     1.0  0.92646  0.20892  0.54981  1.0000
  O   O1251     1.0  0.80712  0.15714  0.51084  1.0000
  O   O1252     1.0  0.79880  0.06196  0.59133  1.0000
  O   O1253     1.0  0.98060  0.18227  0.57598  1.0000
  O   O1254     1.0  0.82620  0.01096  0.51654  1.0000
  O   O1255     1.0  0.88138  0.09765  0.52487  1.0000
  O   O1256     1.0  0.93212  0.15714  0.51084  1.0000
  O   O1257     1.0  0.92380  0.06196  0.59133  1.0000
  O   O1258     1.0  0.85560  0.18227  0.57598  1.0000
  O   O1259     1.0  0.95120  0.01096  0.51654  1.0000
  O   O1260     1.0  0.75638  0.09765  0.52487  1.0000
  Ta  Ta505     1.0  0.98837  0.20538  0.65486  1.0000
  Ta  Ta506     1.0  0.96156  0.05537  0.65198  1.0000
  Ta  Ta507     1.0  0.86337  0.20538  0.65486  1.0000
  Ta  Ta508     1.0  0.83656  0.05537  0.65198  1.0000
  O   O1261     1.0  0.96722  0.00359  0.61300  1.0000
  O   O1262     1.0  0.95890  0.15841  0.69350  1.0000
  O   O1263     1.0  0.89071  0.02872  0.67815  1.0000
  O   O1264     1.0  0.98631  0.10741  0.61871  1.0000
  O   O1265     1.0  0.79148  0.19410  0.62704  1.0000
  O   O1266     1.0  0.84222  0.00359  0.61300  1.0000
  O   O1267     1.0  0.83390  0.15841  0.69350  1.0000
  O   O1268     1.0  0.76571  0.02872  0.67815  1.0000
  O   O1269     1.0  0.86131  0.10741  0.61871  1.0000
  O   O1270     1.0  0.91648  0.19410  0.62704  1.0000
  Ta  Ta509     1.0  0.89847  0.05183  0.75703  1.0000
  Ta  Ta510     1.0  0.87167  0.15182  0.75415  1.0000
  Ta  Ta511     1.0  0.77347  0.05183  0.75703  1.0000
  Ta  Ta512     1.0  0.99667  0.15182  0.75415  1.0000
  O   O1271     1.0  0.87733  0.10004  0.71517  1.0000
  O   O1272     1.0  0.86901  0.00486  0.79567  1.0000
  O   O1273     1.0  0.80081  0.12517  0.78032  1.0000
  O   O1274     1.0  0.89641  0.20386  0.72088  1.0000
  O   O1275     1.0  0.95159  0.04055  0.72921  1.0000
  O   O1276     1.0  0.75233  0.10004  0.71517  1.0000
  O   O1277     1.0  0.99401  0.00486  0.79567  1.0000
  O   O1278     1.0  0.92581  0.12517  0.78032  1.0000
  O   O1279     1.0  0.77141  0.20386  0.72088  1.0000
  O   O1280     1.0  0.82659  0.04055  0.72921  1.0000
  Ta  Ta513     1.0  0.80858  0.14828  0.85920  1.0000
  Ta  Ta514     1.0  0.78177  0.24827  0.85631  1.0000
  Ta  Ta515     1.0  0.93358  0.14828  0.85920  1.0000
  Ta  Ta516     1.0  0.90677  0.24827  0.85631  1.0000
  O   O1281     1.0  0.78743  0.19649  0.81734  1.0000
  O   O1282     1.0  0.77911  0.10131  0.89783  1.0000
  O   O1283     1.0  0.96092  0.22162  0.88248  1.0000
  O   O1284     1.0  0.80652  0.05031  0.82305  1.0000
  O   O1285     1.0  0.86169  0.13700  0.83137  1.0000
  O   O1286     1.0  0.91243  0.19649  0.81734  1.0000
  O   O1287     1.0  0.90411  0.10131  0.89783  1.0000
  O   O1288     1.0  0.83592  0.22162  0.88248  1.0000
  O   O1289     1.0  0.93152  0.05031  0.82305  1.0000
  O   O1290     1.0  0.98669  0.13700  0.83137  1.0000
  Ta  Ta517     1.0  0.96868  0.24473  0.96136  1.0000
  Ta  Ta518     1.0  0.94188  0.09472  0.95848  1.0000
  Ta  Ta519     1.0  0.84368  0.24473  0.96136  1.0000
  Ta  Ta520     1.0  0.81688  0.09472  0.95848  1.0000
  O   O1291     1.0  0.94754  0.04294  0.91951  1.0000
  O   O1292     1.0  0.93922  0.19776  1.00000  1.0000
  O   O1293     1.0  0.87102  0.06807  0.98465  1.0000
  O   O1294     1.0  0.96662  0.14676  0.92521  1.0000
  O   O1295     1.0  0.77180  0.23345  0.93354  1.0000
  O   O1296     1.0  0.82254  0.04294  0.91951  1.0000
  O   O1297     1.0  0.81422  0.19776  1.00000  1.0000
  O   O1298     1.0  0.99602  0.06807  0.98465  1.0000
  O   O1299     1.0  0.84162  0.14676  0.92521  1.0000
  O   O1300     1.0  0.89680  0.23345  0.93354  1.0000
  Ta  Ta521     1.0  0.77774  0.37668  0.04186  1.0000
  Ta  Ta522     1.0  0.75094  0.47667  0.03897  1.0000
  Ta  Ta523     1.0  0.90274  0.37668  0.04186  1.0000
  Ta  Ta524     1.0  0.87594  0.47667  0.03897  1.0000
  O   O1301     1.0  0.75660  0.42489  -0.00000  1.0000
  O   O1302     1.0  0.99827  0.32971  0.08049  1.0000
  O   O1303     1.0  0.93008  0.45002  0.06514  1.0000
  O   O1304     1.0  0.77568  0.27871  0.00571  1.0000
  O   O1305     1.0  0.83085  0.36540  0.01404  1.0000
  O   O1306     1.0  0.88160  0.42489  0.00000  1.0000
  O   O1307     1.0  0.87327  0.32971  0.08049  1.0000
  O   O1308     1.0  0.80508  0.45002  0.06514  1.0000
  O   O1309     1.0  0.90068  0.27871  0.00571  1.0000
  O   O1310     1.0  0.95585  0.36540  0.01404  1.0000
  Ta  Ta525     1.0  0.93785  0.47313  0.14402  1.0000
  Ta  Ta526     1.0  0.91104  0.32312  0.14114  1.0000
  Ta  Ta527     1.0  0.81285  0.47313  0.14402  1.0000
  Ta  Ta528     1.0  0.78604  0.32312  0.14114  1.0000
  O   O1311     1.0  0.91670  0.27134  0.10217  1.0000
  O   O1312     1.0  0.90838  0.42616  0.18266  1.0000
  O   O1313     1.0  0.84019  0.29647  0.16731  1.0000
  O   O1314     1.0  0.93578  0.37516  0.10788  1.0000
  O   O1315     1.0  0.99096  0.46185  0.11620  1.0000
  O   O1316     1.0  0.79170  0.27134  0.10217  1.0000
  O   O1317     1.0  0.78338  0.42616  0.18266  1.0000
  O   O1318     1.0  0.96519  0.29647  0.16731  1.0000
  O   O1319     1.0  0.81078  0.37516  0.10788  1.0000
  O   O1320     1.0  0.86596  0.46185  0.11620  1.0000
  Ta  Ta529     1.0  0.84795  0.31958  0.24619  1.0000
  Ta  Ta530     1.0  0.82115  0.41957  0.24331  1.0000
  Ta  Ta531     1.0  0.97295  0.31958  0.24619  1.0000
  Ta  Ta532     1.0  0.94615  0.41957  0.24331  1.0000
  O   O1321     1.0  0.82681  0.36779  0.20433  1.0000
  O   O1322     1.0  0.81848  0.27261  0.28483  1.0000
  O   O1323     1.0  0.75029  0.39292  0.26948  1.0000
  O   O1324     1.0  0.84589  0.47161  0.21004  1.0000
  O   O1325     1.0  0.90106  0.30830  0.21837  1.0000
  O   O1326     1.0  0.95181  0.36779  0.20433  1.0000
  O   O1327     1.0  0.94348  0.27261  0.28483  1.0000
  O   O1328     1.0  0.87529  0.39292  0.26948  1.0000
  O   O1329     1.0  0.97089  0.47161  0.21004  1.0000
  O   O1330     1.0  0.77606  0.30830  0.21837  1.0000
  Ta  Ta533     1.0  0.75806  0.41603  0.34836  1.0000
  Ta  Ta534     1.0  0.98125  0.26602  0.34548  1.0000
  Ta  Ta535     1.0  0.88306  0.41603  0.34836  1.0000
  Ta  Ta536     1.0  0.85625  0.26602  0.34548  1.0000
  O   O1331     1.0  0.98691  0.46424  0.30650  1.0000
  O   O1332     1.0  0.97859  0.36906  0.38700  1.0000
  O   O1333     1.0  0.91040  0.48937  0.37165  1.0000
  O   O1334     1.0  0.75599  0.31806  0.31221  1.0000
  O   O1335     1.0  0.81117  0.40475  0.32054  1.0000
  O   O1336     1.0  0.86191  0.46424  0.30650  1.0000
  O   O1337     1.0  0.85359  0.36906  0.38700  1.0000
  O   O1338     1.0  0.78540  0.48937  0.37165  1.0000
  O   O1339     1.0  0.88099  0.31806  0.31221  1.0000
  O   O1340     1.0  0.93617  0.40475  0.32054  1.0000
  Ta  Ta537     1.0  0.91816  0.26248  0.45053  1.0000
  Ta  Ta538     1.0  0.89136  0.36247  0.44764  1.0000
  Ta  Ta539     1.0  0.79316  0.26248  0.45053  1.0000
  Ta  Ta540     1.0  0.76636  0.36247  0.44764  1.0000
  O   O1341     1.0  0.89702  0.31069  0.40867  1.0000
  O   O1342     1.0  0.88869  0.46551  0.48916  1.0000
  O   O1343     1.0  0.82050  0.33582  0.47381  1.0000
  O   O1344     1.0  0.91610  0.41451  0.41438  1.0000
  O   O1345     1.0  0.97127  0.25120  0.42270  1.0000
  O   O1346     1.0  0.77202  0.31069  0.40867  1.0000
  O   O1347     1.0  0.76369  0.46551  0.48916  1.0000
  O   O1348     1.0  0.94550  0.33582  0.47381  1.0000
  O   O1349     1.0  0.79110  0.41451  0.41438  1.0000
  O   O1350     1.0  0.84627  0.25120  0.42270  1.0000
  Ta  Ta541     1.0  0.82827  0.35893  0.55269  1.0000
  Ta  Ta542     1.0  0.80146  0.45892  0.54981  1.0000
  Ta  Ta543     1.0  0.95327  0.35893  0.55269  1.0000
  Ta  Ta544     1.0  0.92646  0.45892  0.54981  1.0000
  O   O1351     1.0  0.80712  0.40714  0.51084  1.0000
  O   O1352     1.0  0.79880  0.31196  0.59133  1.0000
  O   O1353     1.0  0.98060  0.43227  0.57598  1.0000
  O   O1354     1.0  0.82620  0.26096  0.51654  1.0000
  O   O1355     1.0  0.88138  0.34765  0.52487  1.0000
  O   O1356     1.0  0.93212  0.40714  0.51084  1.0000
  O   O1357     1.0  0.92380  0.31196  0.59133  1.0000
  O   O1358     1.0  0.85560  0.43227  0.57598  1.0000
  O   O1359     1.0  0.95120  0.26096  0.51654  1.0000
  O   O1360     1.0  0.75638  0.34765  0.52487  1.0000
  Ta  Ta545     1.0  0.98837  0.45538  0.65486  1.0000
  Ta  Ta546     1.0  0.96156  0.30537  0.65198  1.0000
  Ta  Ta547     1.0  0.86337  0.45538  0.65486  1.0000
  Ta  Ta548     1.0  0.83656  0.30537  0.65198  1.0000
  O   O1361     1.0  0.96722  0.25359  0.61300  1.0000
  O   O1362     1.0  0.95890  0.40841  0.69350  1.0000
  O   O1363     1.0  0.89071  0.27872  0.67815  1.0000
  O   O1364     1.0  0.98631  0.35741  0.61871  1.0000
  O   O1365     1.0  0.79148  0.44410  0.62704  1.0000
  O   O1366     1.0  0.84222  0.25359  0.61300  1.0000
  O   O1367     1.0  0.83390  0.40841  0.69350  1.0000
  O   O1368     1.0  0.76571  0.27872  0.67815  1.0000
  O   O1369     1.0  0.86131  0.35741  0.61871  1.0000
  O   O1370     1.0  0.91648  0.44410  0.62704  1.0000
  Ta  Ta549     1.0  0.89847  0.30183  0.75703  1.0000
  Ta  Ta550     1.0  0.87167  0.40182  0.75415  1.0000
  Ta  Ta551     1.0  0.77347  0.30183  0.75703  1.0000
  Ta  Ta552     1.0  0.99667  0.40182  0.75415  1.0000
  O   O1371     1.0  0.87733  0.35004  0.71517  1.0000
  O   O1372     1.0  0.86901  0.25486  0.79567  1.0000
  O   O1373     1.0  0.80081  0.37517  0.78032  1.0000
  O   O1374     1.0  0.89641  0.45386  0.72088  1.0000
  O   O1375     1.0  0.95159  0.29055  0.72921  1.0000
  O   O1376     1.0  0.75233  0.35004  0.71517  1.0000
  O   O1377     1.0  0.99401  0.25486  0.79567  1.0000
  O   O1378     1.0  0.92581  0.37517  0.78032  1.0000
  O   O1379     1.0  0.77141  0.45386  0.72088  1.0000
  O   O1380     1.0  0.82659  0.29055  0.72921  1.0000
  Ta  Ta553     1.0  0.80858  0.39828  0.85920  1.0000
  Ta  Ta554     1.0  0.78177  0.49827  0.85631  1.0000
  Ta  Ta555     1.0  0.93358  0.39828  0.85920  1.0000
  Ta  Ta556     1.0  0.90677  0.49827  0.85631  1.0000
  O   O1381     1.0  0.78743  0.44649  0.81734  1.0000
  O   O1382     1.0  0.77911  0.35131  0.89783  1.0000
  O   O1383     1.0  0.96092  0.47162  0.88248  1.0000
  O   O1384     1.0  0.80652  0.30031  0.82305  1.0000
  O   O1385     1.0  0.86169  0.38700  0.83137  1.0000
  O   O1386     1.0  0.91243  0.44649  0.81734  1.0000
  O   O1387     1.0  0.90411  0.35131  0.89783  1.0000
  O   O1388     1.0  0.83592  0.47162  0.88248  1.0000
  O   O1389     1.0  0.93152  0.30031  0.82305  1.0000
  O   O1390     1.0  0.98669  0.38700  0.83137  1.0000
  Ta  Ta557     1.0  0.96868  0.49473  0.96136  1.0000
  Ta  Ta558     1.0  0.94188  0.34472  0.95848  1.0000
  Ta  Ta559     1.0  0.84368  0.49473  0.96136  1.0000
  Ta  Ta560     1.0  0.81688  0.34472  0.95848  1.0000
  O   O1391     1.0  0.94754  0.29294  0.91951  1.0000
  O   O1392     1.0  0.93922  0.44776  1.00000  1.0000
  O   O1393     1.0  0.87102  0.31807  0.98465  1.0000
  O   O1394     1.0  0.96662  0.39676  0.92521  1.0000
  O   O1395     1.0  0.77180  0.48345  0.93354  1.0000
  O   O1396     1.0  0.82254  0.29294  0.91951  1.0000
  O   O1397     1.0  0.81422  0.44776  1.00000  1.0000
  O   O1398     1.0  0.99602  0.31807  0.98465  1.0000
  O   O1399     1.0  0.84162  0.39676  0.92521  1.0000
  O   O1400     1.0  0.89680  0.48345  0.93354  1.0000
  Ta  Ta561     1.0  0.77774  0.62668  0.04186  1.0000
  Ta  Ta562     1.0  0.75094  0.72667  0.03897  1.0000
  Ta  Ta563     1.0  0.90274  0.62668  0.04186  1.0000
  Ta  Ta564     1.0  0.87594  0.72667  0.03897  1.0000
  O   O1401     1.0  0.75660  0.67489  -0.00000  1.0000
  O   O1402     1.0  0.99827  0.57971  0.08049  1.0000
  O   O1403     1.0  0.93008  0.70002  0.06514  1.0000
  O   O1404     1.0  0.77568  0.52871  0.00571  1.0000
  O   O1405     1.0  0.83085  0.61540  0.01404  1.0000
  O   O1406     1.0  0.88160  0.67489  0.00000  1.0000
  O   O1407     1.0  0.87327  0.57971  0.08049  1.0000
  O   O1408     1.0  0.80508  0.70002  0.06514  1.0000
  O   O1409     1.0  0.90068  0.52871  0.00571  1.0000
  O   O1410     1.0  0.95585  0.61540  0.01404  1.0000
  Ta  Ta565     1.0  0.93785  0.72313  0.14402  1.0000
  Ta  Ta566     1.0  0.91104  0.57312  0.14114  1.0000
  Ta  Ta567     1.0  0.81285  0.72313  0.14402  1.0000
  Ta  Ta568     1.0  0.78604  0.57312  0.14114  1.0000
  O   O1411     1.0  0.91670  0.52134  0.10217  1.0000
  O   O1412     1.0  0.90838  0.67616  0.18266  1.0000
  O   O1413     1.0  0.84019  0.54647  0.16731  1.0000
  O   O1414     1.0  0.93578  0.62516  0.10788  1.0000
  O   O1415     1.0  0.99096  0.71185  0.11620  1.0000
  O   O1416     1.0  0.79170  0.52134  0.10217  1.0000
  O   O1417     1.0  0.78338  0.67616  0.18266  1.0000
  O   O1418     1.0  0.96519  0.54647  0.16731  1.0000
  O   O1419     1.0  0.81078  0.62516  0.10788  1.0000
  O   O1420     1.0  0.86596  0.71185  0.11620  1.0000
  Ta  Ta569     1.0  0.84795  0.56958  0.24619  1.0000
  Ta  Ta570     1.0  0.82115  0.66957  0.24331  1.0000
  Ta  Ta571     1.0  0.97295  0.56958  0.24619  1.0000
  Ta  Ta572     1.0  0.94615  0.66957  0.24331  1.0000
  O   O1421     1.0  0.82681  0.61779  0.20433  1.0000
  O   O1422     1.0  0.81848  0.52261  0.28483  1.0000
  O   O1423     1.0  0.75029  0.64292  0.26948  1.0000
  O   O1424     1.0  0.84589  0.72161  0.21004  1.0000
  O   O1425     1.0  0.90106  0.55830  0.21837  1.0000
  O   O1426     1.0  0.95181  0.61779  0.20433  1.0000
  O   O1427     1.0  0.94348  0.52261  0.28483  1.0000
  O   O1428     1.0  0.87529  0.64292  0.26948  1.0000
  O   O1429     1.0  0.97089  0.72161  0.21004  1.0000
  O   O1430     1.0  0.77606  0.55830  0.21837  1.0000
  Ta  Ta573     1.0  0.75806  0.66603  0.34836  1.0000
  Ta  Ta574     1.0  0.98125  0.51602  0.34548  1.0000
  Ta  Ta575     1.0  0.88306  0.66603  0.34836  1.0000
  Ta  Ta576     1.0  0.85625  0.51602  0.34548  1.0000
  O   O1431     1.0  0.98691  0.71424  0.30650  1.0000
  O   O1432     1.0  0.97859  0.61906  0.38700  1.0000
  O   O1433     1.0  0.91040  0.73937  0.37165  1.0000
  O   O1434     1.0  0.75599  0.56806  0.31221  1.0000
  O   O1435     1.0  0.81117  0.65475  0.32054  1.0000
  O   O1436     1.0  0.86191  0.71424  0.30650  1.0000
  O   O1437     1.0  0.85359  0.61906  0.38700  1.0000
  O   O1438     1.0  0.78540  0.73937  0.37165  1.0000
  O   O1439     1.0  0.88099  0.56806  0.31221  1.0000
  O   O1440     1.0  0.93617  0.65475  0.32054  1.0000
  Ta  Ta577     1.0  0.91816  0.51248  0.45053  1.0000
  Ta  Ta578     1.0  0.89136  0.61247  0.44764  1.0000
  Ta  Ta579     1.0  0.79316  0.51248  0.45053  1.0000
  Ta  Ta580     1.0  0.76636  0.61247  0.44764  1.0000
  O   O1441     1.0  0.89702  0.56069  0.40867  1.0000
  O   O1442     1.0  0.88869  0.71551  0.48916  1.0000
  O   O1443     1.0  0.82050  0.58582  0.47381  1.0000
  O   O1444     1.0  0.91610  0.66451  0.41438  1.0000
  O   O1445     1.0  0.97127  0.50120  0.42270  1.0000
  O   O1446     1.0  0.77202  0.56069  0.40867  1.0000
  O   O1447     1.0  0.76369  0.71551  0.48916  1.0000
  O   O1448     1.0  0.94550  0.58582  0.47381  1.0000
  O   O1449     1.0  0.79110  0.66451  0.41438  1.0000
  O   O1450     1.0  0.84627  0.50120  0.42270  1.0000
  Ta  Ta581     1.0  0.82827  0.60893  0.55269  1.0000
  Ta  Ta582     1.0  0.80146  0.70892  0.54981  1.0000
  Ta  Ta583     1.0  0.95327  0.60893  0.55269  1.0000
  Ta  Ta584     1.0  0.92646  0.70892  0.54981  1.0000
  O   O1451     1.0  0.80712  0.65714  0.51084  1.0000
  O   O1452     1.0  0.79880  0.56196  0.59133  1.0000
  O   O1453     1.0  0.98060  0.68227  0.57598  1.0000
  O   O1454     1.0  0.82620  0.51096  0.51654  1.0000
  O   O1455     1.0  0.88138  0.59765  0.52487  1.0000
  O   O1456     1.0  0.93212  0.65714  0.51084  1.0000
  O   O1457     1.0  0.92380  0.56196  0.59133  1.0000
  O   O1458     1.0  0.85560  0.68227  0.57598  1.0000
  O   O1459     1.0  0.95120  0.51096  0.51654  1.0000
  O   O1460     1.0  0.75638  0.59765  0.52487  1.0000
  Ta  Ta585     1.0  0.98837  0.70538  0.65486  1.0000
  Ta  Ta586     1.0  0.96156  0.55537  0.65198  1.0000
  Ta  Ta587     1.0  0.86337  0.70538  0.65486  1.0000
  Ta  Ta588     1.0  0.83656  0.55537  0.65198  1.0000
  O   O1461     1.0  0.96722  0.50359  0.61300  1.0000
  O   O1462     1.0  0.95890  0.65841  0.69350  1.0000
  O   O1463     1.0  0.89071  0.52872  0.67815  1.0000
  O   O1464     1.0  0.98631  0.60741  0.61871  1.0000
  O   O1465     1.0  0.79148  0.69410  0.62704  1.0000
  O   O1466     1.0  0.84222  0.50359  0.61300  1.0000
  O   O1467     1.0  0.83390  0.65841  0.69350  1.0000
  O   O1468     1.0  0.76571  0.52872  0.67815  1.0000
  O   O1469     1.0  0.86131  0.60741  0.61871  1.0000
  O   O1470     1.0  0.91648  0.69410  0.62704  1.0000
  Ta  Ta589     1.0  0.89847  0.55183  0.75703  1.0000
  Ta  Ta590     1.0  0.87167  0.65182  0.75415  1.0000
  Ta  Ta591     1.0  0.77347  0.55183  0.75703  1.0000
  Ta  Ta592     1.0  0.99667  0.65182  0.75415  1.0000
  O   O1471     1.0  0.87733  0.60004  0.71517  1.0000
  O   O1472     1.0  0.86901  0.50486  0.79567  1.0000
  O   O1473     1.0  0.80081  0.62517  0.78032  1.0000
  O   O1474     1.0  0.89641  0.70386  0.72088  1.0000
  O   O1475     1.0  0.95159  0.54055  0.72921  1.0000
  O   O1476     1.0  0.75233  0.60004  0.71517  1.0000
  O   O1477     1.0  0.99401  0.50486  0.79567  1.0000
  O   O1478     1.0  0.92581  0.62517  0.78032  1.0000
  O   O1479     1.0  0.77141  0.70386  0.72088  1.0000
  O   O1480     1.0  0.82659  0.54055  0.72921  1.0000
  Ta  Ta593     1.0  0.80858  0.64828  0.85920  1.0000
  Ta  Ta594     1.0  0.78177  0.74827  0.85631  1.0000
  Ta  Ta595     1.0  0.93358  0.64828  0.85920  1.0000
  Ta  Ta596     1.0  0.90677  0.74827  0.85631  1.0000
  O   O1481     1.0  0.78743  0.69649  0.81734  1.0000
  O   O1482     1.0  0.77911  0.60131  0.89783  1.0000
  O   O1483     1.0  0.96092  0.72162  0.88248  1.0000
  O   O1484     1.0  0.80652  0.55031  0.82305  1.0000
  O   O1485     1.0  0.86169  0.63700  0.83137  1.0000
  O   O1486     1.0  0.91243  0.69649  0.81734  1.0000
  O   O1487     1.0  0.90411  0.60131  0.89783  1.0000
  O   O1488     1.0  0.83592  0.72162  0.88248  1.0000
  O   O1489     1.0  0.93152  0.55031  0.82305  1.0000
  O   O1490     1.0  0.98669  0.63700  0.83137  1.0000
  Ta  Ta597     1.0  0.96868  0.74473  0.96136  1.0000
  Ta  Ta598     1.0  0.94188  0.59472  0.95848  1.0000
  Ta  Ta599     1.0  0.84368  0.74473  0.96136  1.0000
  Ta  Ta600     1.0  0.81688  0.59472  0.95848  1.0000
  O   O1491     1.0  0.94754  0.54294  0.91951  1.0000
  O   O1492     1.0  0.93922  0.69776  1.00000  1.0000
  O   O1493     1.0  0.87102  0.56807  0.98465  1.0000
  O   O1494     1.0  0.96662  0.64676  0.92521  1.0000
  O   O1495     1.0  0.77180  0.73345  0.93354  1.0000
  O   O1496     1.0  0.82254  0.54294  0.91951  1.0000
  O   O1497     1.0  0.81422  0.69776  1.00000  1.0000
  O   O1498     1.0  0.99602  0.56807  0.98465  1.0000
  O   O1499     1.0  0.84162  0.64676  0.92521  1.0000
  O   O1500     1.0  0.89680  0.73345  0.93354  1.0000
  Ta  Ta601     1.0  0.77774  0.87668  0.04186  1.0000
  Ta  Ta602     1.0  0.75094  0.97667  0.03897  1.0000
  Ta  Ta603     1.0  0.90274  0.87668  0.04186  1.0000
  Ta  Ta604     1.0  0.87594  0.97667  0.03897  1.0000
  O   O1501     1.0  0.75660  0.92489  -0.00000  1.0000
  O   O1502     1.0  0.99827  0.82971  0.08049  1.0000
  O   O1503     1.0  0.93008  0.95002  0.06514  1.0000
  O   O1504     1.0  0.77568  0.77871  0.00571  1.0000
  O   O1505     1.0  0.83085  0.86540  0.01404  1.0000
  O   O1506     1.0  0.88160  0.92489  0.00000  1.0000
  O   O1507     1.0  0.87327  0.82971  0.08049  1.0000
  O   O1508     1.0  0.80508  0.95002  0.06514  1.0000
  O   O1509     1.0  0.90068  0.77871  0.00571  1.0000
  O   O1510     1.0  0.95585  0.86540  0.01404  1.0000
  Ta  Ta605     1.0  0.93785  0.97313  0.14402  1.0000
  Ta  Ta606     1.0  0.91104  0.82312  0.14114  1.0000
  Ta  Ta607     1.0  0.81285  0.97313  0.14402  1.0000
  Ta  Ta608     1.0  0.78604  0.82312  0.14114  1.0000
  O   O1511     1.0  0.91670  0.77134  0.10217  1.0000
  O   O1512     1.0  0.90838  0.92616  0.18266  1.0000
  O   O1513     1.0  0.84019  0.79647  0.16731  1.0000
  O   O1514     1.0  0.93578  0.87516  0.10788  1.0000
  O   O1515     1.0  0.99096  0.96185  0.11620  1.0000
  O   O1516     1.0  0.79170  0.77134  0.10217  1.0000
  O   O1517     1.0  0.78338  0.92616  0.18266  1.0000
  O   O1518     1.0  0.96519  0.79647  0.16731  1.0000
  O   O1519     1.0  0.81078  0.87516  0.10788  1.0000
  O   O1520     1.0  0.86596  0.96185  0.11620  1.0000
  Ta  Ta609     1.0  0.84795  0.81958  0.24619  1.0000
  Ta  Ta610     1.0  0.82115  0.91957  0.24331  1.0000
  Ta  Ta611     1.0  0.97295  0.81958  0.24619  1.0000
  Ta  Ta612     1.0  0.94615  0.91957  0.24331  1.0000
  O   O1521     1.0  0.82681  0.86779  0.20433  1.0000
  O   O1522     1.0  0.81848  0.77261  0.28483  1.0000
  O   O1523     1.0  0.75029  0.89292  0.26948  1.0000
  O   O1524     1.0  0.84589  0.97161  0.21004  1.0000
  O   O1525     1.0  0.90106  0.80830  0.21837  1.0000
  O   O1526     1.0  0.95181  0.86779  0.20433  1.0000
  O   O1527     1.0  0.94348  0.77261  0.28483  1.0000
  O   O1528     1.0  0.87529  0.89292  0.26948  1.0000
  O   O1529     1.0  0.97089  0.97161  0.21004  1.0000
  O   O1530     1.0  0.77606  0.80830  0.21837  1.0000
  Ta  Ta613     1.0  0.75806  0.91603  0.34836  1.0000
  Ta  Ta614     1.0  0.98125  0.76602  0.34548  1.0000
  Ta  Ta615     1.0  0.88306  0.91603  0.34836  1.0000
  Ta  Ta616     1.0  0.85625  0.76602  0.34548  1.0000
  O   O1531     1.0  0.98691  0.96424  0.30650  1.0000
  O   O1532     1.0  0.97859  0.86906  0.38700  1.0000
  O   O1533     1.0  0.91040  0.98937  0.37165  1.0000
  O   O1534     1.0  0.75599  0.81806  0.31221  1.0000
  O   O1535     1.0  0.81117  0.90475  0.32054  1.0000
  O   O1536     1.0  0.86191  0.96424  0.30650  1.0000
  O   O1537     1.0  0.85359  0.86906  0.38700  1.0000
  O   O1538     1.0  0.78540  0.98937  0.37165  1.0000
  O   O1539     1.0  0.88099  0.81806  0.31221  1.0000
  O   O1540     1.0  0.93617  0.90475  0.32054  1.0000
  Ta  Ta617     1.0  0.91816  0.76248  0.45053  1.0000
  Ta  Ta618     1.0  0.89136  0.86247  0.44764  1.0000
  Ta  Ta619     1.0  0.79316  0.76248  0.45053  1.0000
  Ta  Ta620     1.0  0.76636  0.86247  0.44764  1.0000
  O   O1541     1.0  0.89702  0.81069  0.40867  1.0000
  O   O1542     1.0  0.88869  0.96551  0.48916  1.0000
  O   O1543     1.0  0.82050  0.83582  0.47381  1.0000
  O   O1544     1.0  0.91610  0.91451  0.41438  1.0000
  O   O1545     1.0  0.97127  0.75120  0.42270  1.0000
  O   O1546     1.0  0.77202  0.81069  0.40867  1.0000
  O   O1547     1.0  0.76369  0.96551  0.48916  1.0000
  O   O1548     1.0  0.94550  0.83582  0.47381  1.0000
  O   O1549     1.0  0.79110  0.91451  0.41438  1.0000
  O   O1550     1.0  0.84627  0.75120  0.42270  1.0000
  Ta  Ta621     1.0  0.82827  0.85893  0.55269  1.0000
  Ta  Ta622     1.0  0.80146  0.95892  0.54981  1.0000
  Ta  Ta623     1.0  0.95327  0.85893  0.55269  1.0000
  Ta  Ta624     1.0  0.92646  0.95892  0.54981  1.0000
  O   O1551     1.0  0.80712  0.90714  0.51084  1.0000
  O   O1552     1.0  0.79880  0.81196  0.59133  1.0000
  O   O1553     1.0  0.98060  0.93227  0.57598  1.0000
  O   O1554     1.0  0.82620  0.76096  0.51654  1.0000
  O   O1555     1.0  0.88138  0.84765  0.52487  1.0000
  O   O1556     1.0  0.93212  0.90714  0.51084  1.0000
  O   O1557     1.0  0.92380  0.81196  0.59133  1.0000
  O   O1558     1.0  0.85560  0.93227  0.57598  1.0000
  O   O1559     1.0  0.95120  0.76096  0.51654  1.0000
  O   O1560     1.0  0.75638  0.84765  0.52487  1.0000
  Ta  Ta625     1.0  0.98837  0.95538  0.65486  1.0000
  Ta  Ta626     1.0  0.96156  0.80537  0.65198  1.0000
  Ta  Ta627     1.0  0.86337  0.95538  0.65486  1.0000
  Ta  Ta628     1.0  0.83656  0.80537  0.65198  1.0000
  O   O1561     1.0  0.96722  0.75359  0.61300  1.0000
  O   O1562     1.0  0.95890  0.90841  0.69350  1.0000
  O   O1563     1.0  0.89071  0.77872  0.67815  1.0000
  O   O1564     1.0  0.98631  0.85741  0.61871  1.0000
  O   O1565     1.0  0.79148  0.94410  0.62704  1.0000
  O   O1566     1.0  0.84222  0.75359  0.61300  1.0000
  O   O1567     1.0  0.83390  0.90841  0.69350  1.0000
  O   O1568     1.0  0.76571  0.77872  0.67815  1.0000
  O   O1569     1.0  0.86131  0.85741  0.61871  1.0000
  O   O1570     1.0  0.91648  0.94410  0.62704  1.0000
  Ta  Ta629     1.0  0.89847  0.80183  0.75703  1.0000
  Ta  Ta630     1.0  0.87167  0.90182  0.75415  1.0000
  Ta  Ta631     1.0  0.77347  0.80183  0.75703  1.0000
  Ta  Ta632     1.0  0.99667  0.90182  0.75415  1.0000
  O   O1571     1.0  0.87733  0.85004  0.71517  1.0000
  O   O1572     1.0  0.86901  0.75486  0.79567  1.0000
  O   O1573     1.0  0.80081  0.87517  0.78032  1.0000
  O   O1574     1.0  0.89641  0.95386  0.72088  1.0000
  O   O1575     1.0  0.95159  0.79055  0.72921  1.0000
  O   O1576     1.0  0.75233  0.85004  0.71517  1.0000
  O   O1577     1.0  0.99401  0.75486  0.79567  1.0000
  O   O1578     1.0  0.92581  0.87517  0.78032  1.0000
  O   O1579     1.0  0.77141  0.95386  0.72088  1.0000
  O   O1580     1.0  0.82659  0.79055  0.72921  1.0000
  Ta  Ta633     1.0  0.80858  0.89828  0.85920  1.0000
  Ta  Ta634     1.0  0.78177  0.99827  0.85631  1.0000
  Ta  Ta635     1.0  0.93358  0.89828  0.85920  1.0000
  Ta  Ta636     1.0  0.90677  0.99827  0.85631  1.0000
  O   O1581     1.0  0.78743  0.94649  0.81734  1.0000
  O   O1582     1.0  0.77911  0.85131  0.89783  1.0000
  O   O1583     1.0  0.96092  0.97162  0.88248  1.0000
  O   O1584     1.0  0.80652  0.80031  0.82305  1.0000
  O   O1585     1.0  0.86169  0.88700  0.83137  1.0000
  O   O1586     1.0  0.91243  0.94649  0.81734  1.0000
  O   O1587     1.0  0.90411  0.85131  0.89783  1.0000
  O   O1588     1.0  0.83592  0.97162  0.88248  1.0000
  O   O1589     1.0  0.93152  0.80031  0.82305  1.0000
  O   O1590     1.0  0.98669  0.88700  0.83137  1.0000
  Ta  Ta637     1.0  0.96868  0.99473  0.96136  1.0000
  Ta  Ta638     1.0  0.94188  0.84472  0.95848  1.0000
  Ta  Ta639     1.0  0.84368  0.99473  0.96136  1.0000
  Ta  Ta640     1.0  0.81688  0.84472  0.95848  1.0000
  O   O1591     1.0  0.94754  0.79294  0.91951  1.0000
  O   O1592     1.0  0.93922  0.94776  1.00000  1.0000
  O   O1593     1.0  0.87102  0.81807  0.98465  1.0000
  O   O1594     1.0  0.96662  0.89676  0.92521  1.0000
  O   O1595     1.0  0.77180  0.98345  0.93354  1.0000
  O   O1596     1.0  0.82254  0.79294  0.91951  1.0000
  O   O1597     1.0  0.81422  0.94776  1.00000  1.0000
  O   O1598     1.0  0.99602  0.81807  0.98465  1.0000
  O   O1599     1.0  0.84162  0.89676  0.92521  1.0000
  O   O1600     1.0  0.89680  0.98345  0.93354  1.0000
