data_image0
_chemical_formula_structural       Ta4O10Ta4O10Ta4O10Ta4O10Ta4O10Ta4O10Ta4O10Ta4O10Ta4O10Ta4O10Ta4O10Ta4O10Ta4O10Ta4O10Ta4O10Ta4O10Ta4O10Ta4O10Ta4O10Ta4O10Ta4O10Ta4O10Ta4O10Ta4O10Ta4O10Ta4O10Ta4O10Ta4O10Ta4O10Ta4O10Ta4O10Ta4O10Ta4O10Ta4O10Ta4O10Ta4O10Ta4O10Ta4O10Ta4O10Ta4O10Ta4O10Ta4O10Ta4O10Ta4O10Ta4O10Ta4O10Ta4O10Ta4O10Ta4O10Ta4O10Ta4O10Ta4O10Ta4O10Ta4O10Ta4O10Ta4O10Ta4O10Ta4O10Ta4O10Ta4O10Ta4O10Ta4O10Ta4O10Ta4O10Ta4O10Ta4O10Ta4O10Ta4O10Ta4O10Ta4O10Ta4O10Ta4O10Ta4O10Ta4O10Ta4O10Ta4O10Ta4O10Ta4O10Ta4O10Ta4O10
_chemical_formula_sum              "Ta320 O800"
_cell_length_a       32.2048
_cell_length_b       31.2642
_cell_length_c       12.5848
_cell_angle_alpha    90
_cell_angle_beta     90
_cell_angle_gamma    99.067

_space_group_name_H-M_alt    "P 1"
_space_group_IT_number       1

loop_
  _space_group_symop_operation_xyz
  'x, y, z'

loop_
  _atom_site_type_symbol
  _atom_site_label
  _atom_site_symmetry_multiplicity
  _atom_site_fract_x
  _atom_site_fract_y
  _atom_site_fract_z
  _atom_site_occupancy
  Ta  Ta1       1.0  0.02774  0.12668  0.08557  1.0000
  Ta  Ta2       1.0  0.00094  0.22667  0.07967  1.0000
  Ta  Ta3       1.0  0.15274  0.12668  0.08557  1.0000
  Ta  Ta4       1.0  0.12594  0.22667  0.07967  1.0000
  O   O1        1.0  0.00660  0.17489  0.00000  1.0000
  O   O2        1.0  0.24827  0.07971  0.16455  1.0000
  O   O3        1.0  0.18008  0.20002  0.13317  1.0000
  O   O4        1.0  0.02568  0.02871  0.01167  1.0000
  O   O5        1.0  0.08085  0.11540  0.02869  1.0000
  O   O6        1.0  0.13160  0.17489  0.00000  1.0000
  O   O7        1.0  0.12327  0.07971  0.16455  1.0000
  O   O8        1.0  0.05508  0.20002  0.13317  1.0000
  O   O9        1.0  0.15068  0.02871  0.01167  1.0000
  O   O10       1.0  0.20585  0.11540  0.02869  1.0000
  Ta  Ta5       1.0  0.18785  0.22313  0.29443  1.0000
  Ta  Ta6       1.0  0.16104  0.07312  0.28854  1.0000
  Ta  Ta7       1.0  0.06285  0.22313  0.29443  1.0000
  Ta  Ta8       1.0  0.03604  0.07312  0.28854  1.0000
  O   O11       1.0  0.16670  0.02134  0.20886  1.0000
  O   O12       1.0  0.15838  0.17616  0.37341  1.0000
  O   O13       1.0  0.09019  0.04647  0.34204  1.0000
  O   O14       1.0  0.18578  0.12516  0.22053  1.0000
  O   O15       1.0  0.24096  0.21185  0.23755  1.0000
  O   O16       1.0  0.04170  0.02134  0.20886  1.0000
  O   O17       1.0  0.03338  0.17616  0.37341  1.0000
  O   O18       1.0  0.21519  0.04647  0.34204  1.0000
  O   O19       1.0  0.06078  0.12516  0.22053  1.0000
  O   O20       1.0  0.11596  0.21185  0.23755  1.0000
  Ta  Ta9       1.0  0.09795  0.06958  0.50329  1.0000
  Ta  Ta10      1.0  0.07115  0.16957  0.49740  1.0000
  Ta  Ta11      1.0  0.22295  0.06958  0.50329  1.0000
  Ta  Ta12      1.0  0.19615  0.16957  0.49740  1.0000
  O   O21       1.0  0.07681  0.11779  0.41772  1.0000
  O   O22       1.0  0.06848  0.02261  0.58228  1.0000
  O   O23       1.0  0.00029  0.14292  0.55090  1.0000
  O   O24       1.0  0.09589  0.22161  0.42939  1.0000
  O   O25       1.0  0.15106  0.05830  0.44642  1.0000
  O   O26       1.0  0.20181  0.11779  0.41772  1.0000
  O   O27       1.0  0.19348  0.02261  0.58228  1.0000
  O   O28       1.0  0.12529  0.14292  0.55090  1.0000
  O   O29       1.0  0.22089  0.22161  0.42939  1.0000
  O   O30       1.0  0.02606  0.05830  0.44642  1.0000
  Ta  Ta13      1.0  0.00806  0.16603  0.71216  1.0000
  Ta  Ta14      1.0  0.23125  0.01602  0.70626  1.0000
  Ta  Ta15      1.0  0.13306  0.16603  0.71216  1.0000
  Ta  Ta16      1.0  0.10625  0.01602  0.70626  1.0000
  O   O31       1.0  0.23691  0.21424  0.62659  1.0000
  O   O32       1.0  0.22859  0.11906  0.79114  1.0000
  O   O33       1.0  0.16040  0.23937  0.75976  1.0000
  O   O34       1.0  0.00599  0.06806  0.63825  1.0000
  O   O35       1.0  0.06117  0.15475  0.65528  1.0000
  O   O36       1.0  0.11191  0.21424  0.62659  1.0000
  O   O37       1.0  0.10359  0.11906  0.79114  1.0000
  O   O38       1.0  0.03540  0.23937  0.75976  1.0000
  O   O39       1.0  0.13099  0.06806  0.63825  1.0000
  O   O40       1.0  0.18617  0.15475  0.65528  1.0000
  Ta  Ta17      1.0  0.16816  0.01248  0.92102  1.0000
  Ta  Ta18      1.0  0.14136  0.11247  0.91512  1.0000
  Ta  Ta19      1.0  0.04316  0.01248  0.92102  1.0000
  Ta  Ta20      1.0  0.01636  0.11247  0.91512  1.0000
  O   O41       1.0  0.14702  0.06069  0.83545  1.0000
  O   O42       1.0  0.13869  0.21551  1.00000  1.0000
  O   O43       1.0  0.07050  0.08582  0.96862  1.0000
  O   O44       1.0  0.16610  0.16451  0.84712  1.0000
  O   O45       1.0  0.22127  0.00120  0.86414  1.0000
  O   O46       1.0  0.02202  0.06069  0.83545  1.0000
  O   O47       1.0  0.01369  0.21551  1.00000  1.0000
  O   O48       1.0  0.19550  0.08582  0.96862  1.0000
  O   O49       1.0  0.04110  0.16451  0.84712  1.0000
  O   O50       1.0  0.09627  0.00120  0.86414  1.0000
  Ta  Ta21      1.0  0.02774  0.37668  0.08557  1.0000
  Ta  Ta22      1.0  0.00094  0.47667  0.07967  1.0000
  Ta  Ta23      1.0  0.15274  0.37668  0.08557  1.0000
  Ta  Ta24      1.0  0.12594  0.47667  0.07967  1.0000
  O   O51       1.0  0.00660  0.42489  0.00000  1.0000
  O   O52       1.0  0.24827  0.32971  0.16455  1.0000
  O   O53       1.0  0.18008  0.45002  0.13317  1.0000
  O   O54       1.0  0.02568  0.27871  0.01167  1.0000
  O   O55       1.0  0.08085  0.36540  0.02869  1.0000
  O   O56       1.0  0.13160  0.42489  0.00000  1.0000
  O   O57       1.0  0.12327  0.32971  0.16455  1.0000
  O   O58       1.0  0.05508  0.45002  0.13317  1.0000
  O   O59       1.0  0.15068  0.27871  0.01167  1.0000
  O   O60       1.0  0.20585  0.36540  0.02869  1.0000
  Ta  Ta25      1.0  0.18785  0.47313  0.29443  1.0000
  Ta  Ta26      1.0  0.16104  0.32312  0.28854  1.0000
  Ta  Ta27      1.0  0.06285  0.47313  0.29443  1.0000
  Ta  Ta28      1.0  0.03604  0.32312  0.28854  1.0000
  O   O61       1.0  0.16670  0.27134  0.20886  1.0000
  O   O62       1.0  0.15838  0.42616  0.37341  1.0000
  O   O63       1.0  0.09019  0.29647  0.34204  1.0000
  O   O64       1.0  0.18578  0.37516  0.22053  1.0000
  O   O65       1.0  0.24096  0.46185  0.23755  1.0000
  O   O66       1.0  0.04170  0.27134  0.20886  1.0000
  O   O67       1.0  0.03338  0.42616  0.37341  1.0000
  O   O68       1.0  0.21519  0.29647  0.34204  1.0000
  O   O69       1.0  0.06078  0.37516  0.22053  1.0000
  O   O70       1.0  0.11596  0.46185  0.23755  1.0000
  Ta  Ta29      1.0  0.09795  0.31958  0.50329  1.0000
  Ta  Ta30      1.0  0.07115  0.41957  0.49740  1.0000
  Ta  Ta31      1.0  0.22295  0.31958  0.50329  1.0000
  Ta  Ta32      1.0  0.19615  0.41957  0.49740  1.0000
  O   O71       1.0  0.07681  0.36779  0.41772  1.0000
  O   O72       1.0  0.06848  0.27261  0.58228  1.0000
  O   O73       1.0  0.00029  0.39292  0.55090  1.0000
  O   O74       1.0  0.09589  0.47161  0.42939  1.0000
  O   O75       1.0  0.15106  0.30830  0.44642  1.0000
  O   O76       1.0  0.20181  0.36779  0.41772  1.0000
  O   O77       1.0  0.19348  0.27261  0.58228  1.0000
  O   O78       1.0  0.12529  0.39292  0.55090  1.0000
  O   O79       1.0  0.22089  0.47161  0.42939  1.0000
  O   O80       1.0  0.02606  0.30830  0.44642  1.0000
  Ta  Ta33      1.0  0.00806  0.41603  0.71216  1.0000
  Ta  Ta34      1.0  0.23125  0.26602  0.70626  1.0000
  Ta  Ta35      1.0  0.13306  0.41603  0.71216  1.0000
  Ta  Ta36      1.0  0.10625  0.26602  0.70626  1.0000
  O   O81       1.0  0.23691  0.46424  0.62659  1.0000
  O   O82       1.0  0.22859  0.36906  0.79114  1.0000
  O   O83       1.0  0.16040  0.48937  0.75976  1.0000
  O   O84       1.0  0.00599  0.31806  0.63825  1.0000
  O   O85       1.0  0.06117  0.40475  0.65528  1.0000
  O   O86       1.0  0.11191  0.46424  0.62659  1.0000
  O   O87       1.0  0.10359  0.36906  0.79114  1.0000
  O   O88       1.0  0.03540  0.48937  0.75976  1.0000
  O   O89       1.0  0.13099  0.31806  0.63825  1.0000
  O   O90       1.0  0.18617  0.40475  0.65528  1.0000
  Ta  Ta37      1.0  0.16816  0.26248  0.92102  1.0000
  Ta  Ta38      1.0  0.14136  0.36247  0.91512  1.0000
  Ta  Ta39      1.0  0.04316  0.26248  0.92102  1.0000
  Ta  Ta40      1.0  0.01636  0.36247  0.91512  1.0000
  O   O91       1.0  0.14702  0.31069  0.83545  1.0000
  O   O92       1.0  0.13869  0.46551  1.00000  1.0000
  O   O93       1.0  0.07050  0.33582  0.96862  1.0000
  O   O94       1.0  0.16610  0.41451  0.84712  1.0000
  O   O95       1.0  0.22127  0.25120  0.86414  1.0000
  O   O96       1.0  0.02202  0.31069  0.83545  1.0000
  O   O97       1.0  0.01369  0.46551  1.00000  1.0000
  O   O98       1.0  0.19550  0.33582  0.96862  1.0000
  O   O99       1.0  0.04110  0.41451  0.84712  1.0000
  O   O100      1.0  0.09627  0.25120  0.86414  1.0000
  Ta  Ta41      1.0  0.02774  0.62668  0.08557  1.0000
  Ta  Ta42      1.0  0.00094  0.72667  0.07967  1.0000
  Ta  Ta43      1.0  0.15274  0.62668  0.08557  1.0000
  Ta  Ta44      1.0  0.12594  0.72667  0.07967  1.0000
  O   O101      1.0  0.00660  0.67489  0.00000  1.0000
  O   O102      1.0  0.24827  0.57971  0.16455  1.0000
  O   O103      1.0  0.18008  0.70002  0.13317  1.0000
  O   O104      1.0  0.02568  0.52871  0.01167  1.0000
  O   O105      1.0  0.08085  0.61540  0.02869  1.0000
  O   O106      1.0  0.13160  0.67489  0.00000  1.0000
  O   O107      1.0  0.12327  0.57971  0.16455  1.0000
  O   O108      1.0  0.05508  0.70002  0.13317  1.0000
  O   O109      1.0  0.15068  0.52871  0.01167  1.0000
  O   O110      1.0  0.20585  0.61540  0.02869  1.0000
  Ta  Ta45      1.0  0.18785  0.72313  0.29443  1.0000
  Ta  Ta46      1.0  0.16104  0.57312  0.28854  1.0000
  Ta  Ta47      1.0  0.06285  0.72313  0.29443  1.0000
  Ta  Ta48      1.0  0.03604  0.57312  0.28854  1.0000
  O   O111      1.0  0.16670  0.52134  0.20886  1.0000
  O   O112      1.0  0.15838  0.67616  0.37341  1.0000
  O   O113      1.0  0.09019  0.54647  0.34204  1.0000
  O   O114      1.0  0.18578  0.62516  0.22053  1.0000
  O   O115      1.0  0.24096  0.71185  0.23755  1.0000
  O   O116      1.0  0.04170  0.52134  0.20886  1.0000
  O   O117      1.0  0.03338  0.67616  0.37341  1.0000
  O   O118      1.0  0.21519  0.54647  0.34204  1.0000
  O   O119      1.0  0.06078  0.62516  0.22053  1.0000
  O   O120      1.0  0.11596  0.71185  0.23755  1.0000
  Ta  Ta49      1.0  0.09795  0.56958  0.50329  1.0000
  Ta  Ta50      1.0  0.07115  0.66957  0.49740  1.0000
  Ta  Ta51      1.0  0.22295  0.56958  0.50329  1.0000
  Ta  Ta52      1.0  0.19615  0.66957  0.49740  1.0000
  O   O121      1.0  0.07681  0.61779  0.41772  1.0000
  O   O122      1.0  0.06848  0.52261  0.58228  1.0000
  O   O123      1.0  0.00029  0.64292  0.55090  1.0000
  O   O124      1.0  0.09589  0.72161  0.42939  1.0000
  O   O125      1.0  0.15106  0.55830  0.44642  1.0000
  O   O126      1.0  0.20181  0.61779  0.41772  1.0000
  O   O127      1.0  0.19348  0.52261  0.58228  1.0000
  O   O128      1.0  0.12529  0.64292  0.55090  1.0000
  O   O129      1.0  0.22089  0.72161  0.42939  1.0000
  O   O130      1.0  0.02606  0.55830  0.44642  1.0000
  Ta  Ta53      1.0  0.00806  0.66603  0.71216  1.0000
  Ta  Ta54      1.0  0.23125  0.51602  0.70626  1.0000
  Ta  Ta55      1.0  0.13306  0.66603  0.71216  1.0000
  Ta  Ta56      1.0  0.10625  0.51602  0.70626  1.0000
  O   O131      1.0  0.23691  0.71424  0.62659  1.0000
  O   O132      1.0  0.22859  0.61906  0.79114  1.0000
  O   O133      1.0  0.16040  0.73937  0.75976  1.0000
  O   O134      1.0  0.00599  0.56806  0.63825  1.0000
  O   O135      1.0  0.06117  0.65475  0.65528  1.0000
  O   O136      1.0  0.11191  0.71424  0.62659  1.0000
  O   O137      1.0  0.10359  0.61906  0.79114  1.0000
  O   O138      1.0  0.03540  0.73937  0.75976  1.0000
  O   O139      1.0  0.13099  0.56806  0.63825  1.0000
  O   O140      1.0  0.18617  0.65475  0.65528  1.0000
  Ta  Ta57      1.0  0.16816  0.51248  0.92102  1.0000
  Ta  Ta58      1.0  0.14136  0.61247  0.91512  1.0000
  Ta  Ta59      1.0  0.04316  0.51248  0.92102  1.0000
  Ta  Ta60      1.0  0.01636  0.61247  0.91512  1.0000
  O   O141      1.0  0.14702  0.56069  0.83545  1.0000
  O   O142      1.0  0.13869  0.71551  1.00000  1.0000
  O   O143      1.0  0.07050  0.58582  0.96862  1.0000
  O   O144      1.0  0.16610  0.66451  0.84712  1.0000
  O   O145      1.0  0.22127  0.50120  0.86414  1.0000
  O   O146      1.0  0.02202  0.56069  0.83545  1.0000
  O   O147      1.0  0.01369  0.71551  1.00000  1.0000
  O   O148      1.0  0.19550  0.58582  0.96862  1.0000
  O   O149      1.0  0.04110  0.66451  0.84712  1.0000
  O   O150      1.0  0.09627  0.50120  0.86414  1.0000
  Ta  Ta61      1.0  0.02774  0.87668  0.08557  1.0000
  Ta  Ta62      1.0  0.00094  0.97667  0.07967  1.0000
  Ta  Ta63      1.0  0.15274  0.87668  0.08557  1.0000
  Ta  Ta64      1.0  0.12594  0.97667  0.07967  1.0000
  O   O151      1.0  0.00660  0.92489  0.00000  1.0000
  O   O152      1.0  0.24827  0.82971  0.16455  1.0000
  O   O153      1.0  0.18008  0.95002  0.13317  1.0000
  O   O154      1.0  0.02568  0.77871  0.01167  1.0000
  O   O155      1.0  0.08085  0.86540  0.02869  1.0000
  O   O156      1.0  0.13160  0.92489  0.00000  1.0000
  O   O157      1.0  0.12327  0.82971  0.16455  1.0000
  O   O158      1.0  0.05508  0.95002  0.13317  1.0000
  O   O159      1.0  0.15068  0.77871  0.01167  1.0000
  O   O160      1.0  0.20585  0.86540  0.02869  1.0000
  Ta  Ta65      1.0  0.18785  0.97313  0.29443  1.0000
  Ta  Ta66      1.0  0.16104  0.82312  0.28854  1.0000
  Ta  Ta67      1.0  0.06285  0.97313  0.29443  1.0000
  Ta  Ta68      1.0  0.03604  0.82312  0.28854  1.0000
  O   O161      1.0  0.16670  0.77134  0.20886  1.0000
  O   O162      1.0  0.15838  0.92616  0.37341  1.0000
  O   O163      1.0  0.09019  0.79647  0.34204  1.0000
  O   O164      1.0  0.18578  0.87516  0.22053  1.0000
  O   O165      1.0  0.24096  0.96185  0.23755  1.0000
  O   O166      1.0  0.04170  0.77134  0.20886  1.0000
  O   O167      1.0  0.03338  0.92616  0.37341  1.0000
  O   O168      1.0  0.21519  0.79647  0.34204  1.0000
  O   O169      1.0  0.06078  0.87516  0.22053  1.0000
  O   O170      1.0  0.11596  0.96185  0.23755  1.0000
  Ta  Ta69      1.0  0.09795  0.81958  0.50329  1.0000
  Ta  Ta70      1.0  0.07115  0.91957  0.49740  1.0000
  Ta  Ta71      1.0  0.22295  0.81958  0.50329  1.0000
  Ta  Ta72      1.0  0.19615  0.91957  0.49740  1.0000
  O   O171      1.0  0.07681  0.86779  0.41772  1.0000
  O   O172      1.0  0.06848  0.77261  0.58228  1.0000
  O   O173      1.0  0.00029  0.89292  0.55090  1.0000
  O   O174      1.0  0.09589  0.97161  0.42939  1.0000
  O   O175      1.0  0.15106  0.80830  0.44642  1.0000
  O   O176      1.0  0.20181  0.86779  0.41772  1.0000
  O   O177      1.0  0.19348  0.77261  0.58228  1.0000
  O   O178      1.0  0.12529  0.89292  0.55090  1.0000
  O   O179      1.0  0.22089  0.97161  0.42939  1.0000
  O   O180      1.0  0.02606  0.80830  0.44642  1.0000
  Ta  Ta73      1.0  0.00806  0.91603  0.71216  1.0000
  Ta  Ta74      1.0  0.23125  0.76602  0.70626  1.0000
  Ta  Ta75      1.0  0.13306  0.91603  0.71216  1.0000
  Ta  Ta76      1.0  0.10625  0.76602  0.70626  1.0000
  O   O181      1.0  0.23691  0.96424  0.62659  1.0000
  O   O182      1.0  0.22859  0.86906  0.79114  1.0000
  O   O183      1.0  0.16040  0.98937  0.75976  1.0000
  O   O184      1.0  0.00599  0.81806  0.63825  1.0000
  O   O185      1.0  0.06117  0.90475  0.65528  1.0000
  O   O186      1.0  0.11191  0.96424  0.62659  1.0000
  O   O187      1.0  0.10359  0.86906  0.79114  1.0000
  O   O188      1.0  0.03540  0.98937  0.75976  1.0000
  O   O189      1.0  0.13099  0.81806  0.63825  1.0000
  O   O190      1.0  0.18617  0.90475  0.65528  1.0000
  Ta  Ta77      1.0  0.16816  0.76248  0.92102  1.0000
  Ta  Ta78      1.0  0.14136  0.86247  0.91512  1.0000
  Ta  Ta79      1.0  0.04316  0.76248  0.92102  1.0000
  Ta  Ta80      1.0  0.01636  0.86247  0.91512  1.0000
  O   O191      1.0  0.14702  0.81069  0.83545  1.0000
  O   O192      1.0  0.13869  0.96551  1.00000  1.0000
  O   O193      1.0  0.07050  0.83582  0.96862  1.0000
  O   O194      1.0  0.16610  0.91451  0.84712  1.0000
  O   O195      1.0  0.22127  0.75120  0.86414  1.0000
  O   O196      1.0  0.02202  0.81069  0.83545  1.0000
  O   O197      1.0  0.01369  0.96551  1.00000  1.0000
  O   O198      1.0  0.19550  0.83582  0.96862  1.0000
  O   O199      1.0  0.04110  0.91451  0.84712  1.0000
  O   O200      1.0  0.09627  0.75120  0.86414  1.0000
  Ta  Ta81      1.0  0.27774  0.12668  0.08557  1.0000
  Ta  Ta82      1.0  0.25094  0.22667  0.07967  1.0000
  Ta  Ta83      1.0  0.40274  0.12668  0.08557  1.0000
  Ta  Ta84      1.0  0.37594  0.22667  0.07967  1.0000
  O   O201      1.0  0.25660  0.17489  0.00000  1.0000
  O   O202      1.0  0.49827  0.07971  0.16455  1.0000
  O   O203      1.0  0.43008  0.20002  0.13317  1.0000
  O   O204      1.0  0.27568  0.02871  0.01167  1.0000
  O   O205      1.0  0.33085  0.11540  0.02869  1.0000
  O   O206      1.0  0.38160  0.17489  0.00000  1.0000
  O   O207      1.0  0.37327  0.07971  0.16455  1.0000
  O   O208      1.0  0.30508  0.20002  0.13317  1.0000
  O   O209      1.0  0.40068  0.02871  0.01167  1.0000
  O   O210      1.0  0.45585  0.11540  0.02869  1.0000
  Ta  Ta85      1.0  0.43785  0.22313  0.29443  1.0000
  Ta  Ta86      1.0  0.41104  0.07312  0.28854  1.0000
  Ta  Ta87      1.0  0.31285  0.22313  0.29443  1.0000
  Ta  Ta88      1.0  0.28604  0.07312  0.28854  1.0000
  O   O211      1.0  0.41670  0.02134  0.20886  1.0000
  O   O212      1.0  0.40838  0.17616  0.37341  1.0000
  O   O213      1.0  0.34019  0.04647  0.34204  1.0000
  O   O214      1.0  0.43578  0.12516  0.22053  1.0000
  O   O215      1.0  0.49096  0.21185  0.23755  1.0000
  O   O216      1.0  0.29170  0.02134  0.20886  1.0000
  O   O217      1.0  0.28338  0.17616  0.37341  1.0000
  O   O218      1.0  0.46519  0.04647  0.34204  1.0000
  O   O219      1.0  0.31078  0.12516  0.22053  1.0000
  O   O220      1.0  0.36596  0.21185  0.23755  1.0000
  Ta  Ta89      1.0  0.34795  0.06958  0.50329  1.0000
  Ta  Ta90      1.0  0.32115  0.16957  0.49740  1.0000
  Ta  Ta91      1.0  0.47295  0.06958  0.50329  1.0000
  Ta  Ta92      1.0  0.44615  0.16957  0.49740  1.0000
  O   O221      1.0  0.32681  0.11779  0.41772  1.0000
  O   O222      1.0  0.31848  0.02261  0.58228  1.0000
  O   O223      1.0  0.25029  0.14292  0.55090  1.0000
  O   O224      1.0  0.34589  0.22161  0.42939  1.0000
  O   O225      1.0  0.40106  0.05830  0.44642  1.0000
  O   O226      1.0  0.45181  0.11779  0.41772  1.0000
  O   O227      1.0  0.44348  0.02261  0.58228  1.0000
  O   O228      1.0  0.37529  0.14292  0.55090  1.0000
  O   O229      1.0  0.47089  0.22161  0.42939  1.0000
  O   O230      1.0  0.27606  0.05830  0.44642  1.0000
  Ta  Ta93      1.0  0.25806  0.16603  0.71216  1.0000
  Ta  Ta94      1.0  0.48125  0.01602  0.70626  1.0000
  Ta  Ta95      1.0  0.38306  0.16603  0.71216  1.0000
  Ta  Ta96      1.0  0.35625  0.01602  0.70626  1.0000
  O   O231      1.0  0.48691  0.21424  0.62659  1.0000
  O   O232      1.0  0.47859  0.11906  0.79114  1.0000
  O   O233      1.0  0.41040  0.23937  0.75976  1.0000
  O   O234      1.0  0.25599  0.06806  0.63825  1.0000
  O   O235      1.0  0.31117  0.15475  0.65528  1.0000
  O   O236      1.0  0.36191  0.21424  0.62659  1.0000
  O   O237      1.0  0.35359  0.11906  0.79114  1.0000
  O   O238      1.0  0.28540  0.23937  0.75976  1.0000
  O   O239      1.0  0.38099  0.06806  0.63825  1.0000
  O   O240      1.0  0.43617  0.15475  0.65528  1.0000
  Ta  Ta97      1.0  0.41816  0.01248  0.92102  1.0000
  Ta  Ta98      1.0  0.39136  0.11247  0.91512  1.0000
  Ta  Ta99      1.0  0.29316  0.01248  0.92102  1.0000
  Ta  Ta100     1.0  0.26636  0.11247  0.91512  1.0000
  O   O241      1.0  0.39702  0.06069  0.83545  1.0000
  O   O242      1.0  0.38869  0.21551  1.00000  1.0000
  O   O243      1.0  0.32050  0.08582  0.96862  1.0000
  O   O244      1.0  0.41610  0.16451  0.84712  1.0000
  O   O245      1.0  0.47127  0.00120  0.86414  1.0000
  O   O246      1.0  0.27202  0.06069  0.83545  1.0000
  O   O247      1.0  0.26369  0.21551  1.00000  1.0000
  O   O248      1.0  0.44550  0.08582  0.96862  1.0000
  O   O249      1.0  0.29110  0.16451  0.84712  1.0000
  O   O250      1.0  0.34627  0.00120  0.86414  1.0000
  Ta  Ta101     1.0  0.27774  0.37668  0.08557  1.0000
  Ta  Ta102     1.0  0.25094  0.47667  0.07967  1.0000
  Ta  Ta103     1.0  0.40274  0.37668  0.08557  1.0000
  Ta  Ta104     1.0  0.37594  0.47667  0.07967  1.0000
  O   O251      1.0  0.25660  0.42489  0.00000  1.0000
  O   O252      1.0  0.49827  0.32971  0.16455  1.0000
  O   O253      1.0  0.43008  0.45002  0.13317  1.0000
  O   O254      1.0  0.27568  0.27871  0.01167  1.0000
  O   O255      1.0  0.33085  0.36540  0.02869  1.0000
  O   O256      1.0  0.38160  0.42489  0.00000  1.0000
  O   O257      1.0  0.37327  0.32971  0.16455  1.0000
  O   O258      1.0  0.30508  0.45002  0.13317  1.0000
  O   O259      1.0  0.40068  0.27871  0.01167  1.0000
  O   O260      1.0  0.45585  0.36540  0.02869  1.0000
  Ta  Ta105     1.0  0.43785  0.47313  0.29443  1.0000
  Ta  Ta106     1.0  0.41104  0.32312  0.28854  1.0000
  Ta  Ta107     1.0  0.31285  0.47313  0.29443  1.0000
  Ta  Ta108     1.0  0.28604  0.32312  0.28854  1.0000
  O   O261      1.0  0.41670  0.27134  0.20886  1.0000
  O   O262      1.0  0.40838  0.42616  0.37341  1.0000
  O   O263      1.0  0.34019  0.29647  0.34204  1.0000
  O   O264      1.0  0.43578  0.37516  0.22053  1.0000
  O   O265      1.0  0.49096  0.46185  0.23755  1.0000
  O   O266      1.0  0.29170  0.27134  0.20886  1.0000
  O   O267      1.0  0.28338  0.42616  0.37341  1.0000
  O   O268      1.0  0.46519  0.29647  0.34204  1.0000
  O   O269      1.0  0.31078  0.37516  0.22053  1.0000
  O   O270      1.0  0.36596  0.46185  0.23755  1.0000
  Ta  Ta109     1.0  0.34795  0.31958  0.50329  1.0000
  Ta  Ta110     1.0  0.32115  0.41957  0.49740  1.0000
  Ta  Ta111     1.0  0.47295  0.31958  0.50329  1.0000
  Ta  Ta112     1.0  0.44615  0.41957  0.49740  1.0000
  O   O271      1.0  0.32681  0.36779  0.41772  1.0000
  O   O272      1.0  0.31848  0.27261  0.58228  1.0000
  O   O273      1.0  0.25029  0.39292  0.55090  1.0000
  O   O274      1.0  0.34589  0.47161  0.42939  1.0000
  O   O275      1.0  0.40106  0.30830  0.44642  1.0000
  O   O276      1.0  0.45181  0.36779  0.41772  1.0000
  O   O277      1.0  0.44348  0.27261  0.58228  1.0000
  O   O278      1.0  0.37529  0.39292  0.55090  1.0000
  O   O279      1.0  0.47089  0.47161  0.42939  1.0000
  O   O280      1.0  0.27606  0.30830  0.44642  1.0000
  Ta  Ta113     1.0  0.25806  0.41603  0.71216  1.0000
  Ta  Ta114     1.0  0.48125  0.26602  0.70626  1.0000
  Ta  Ta115     1.0  0.38306  0.41603  0.71216  1.0000
  Ta  Ta116     1.0  0.35625  0.26602  0.70626  1.0000
  O   O281      1.0  0.48691  0.46424  0.62659  1.0000
  O   O282      1.0  0.47859  0.36906  0.79114  1.0000
  O   O283      1.0  0.41040  0.48937  0.75976  1.0000
  O   O284      1.0  0.25599  0.31806  0.63825  1.0000
  O   O285      1.0  0.31117  0.40475  0.65528  1.0000
  O   O286      1.0  0.36191  0.46424  0.62659  1.0000
  O   O287      1.0  0.35359  0.36906  0.79114  1.0000
  O   O288      1.0  0.28540  0.48937  0.75976  1.0000
  O   O289      1.0  0.38099  0.31806  0.63825  1.0000
  O   O290      1.0  0.43617  0.40475  0.65528  1.0000
  Ta  Ta117     1.0  0.41816  0.26248  0.92102  1.0000
  Ta  Ta118     1.0  0.39136  0.36247  0.91512  1.0000
  Ta  Ta119     1.0  0.29316  0.26248  0.92102  1.0000
  Ta  Ta120     1.0  0.26636  0.36247  0.91512  1.0000
  O   O291      1.0  0.39702  0.31069  0.83545  1.0000
  O   O292      1.0  0.38869  0.46551  1.00000  1.0000
  O   O293      1.0  0.32050  0.33582  0.96862  1.0000
  O   O294      1.0  0.41610  0.41451  0.84712  1.0000
  O   O295      1.0  0.47127  0.25120  0.86414  1.0000
  O   O296      1.0  0.27202  0.31069  0.83545  1.0000
  O   O297      1.0  0.26369  0.46551  1.00000  1.0000
  O   O298      1.0  0.44550  0.33582  0.96862  1.0000
  O   O299      1.0  0.29110  0.41451  0.84712  1.0000
  O   O300      1.0  0.34627  0.25120  0.86414  1.0000
  Ta  Ta121     1.0  0.27774  0.62668  0.08557  1.0000
  Ta  Ta122     1.0  0.25094  0.72667  0.07967  1.0000
  Ta  Ta123     1.0  0.40274  0.62668  0.08557  1.0000
  Ta  Ta124     1.0  0.37594  0.72667  0.07967  1.0000
  O   O301      1.0  0.25660  0.67489  0.00000  1.0000
  O   O302      1.0  0.49827  0.57971  0.16455  1.0000
  O   O303      1.0  0.43008  0.70002  0.13317  1.0000
  O   O304      1.0  0.27568  0.52871  0.01167  1.0000
  O   O305      1.0  0.33085  0.61540  0.02869  1.0000
  O   O306      1.0  0.38160  0.67489  0.00000  1.0000
  O   O307      1.0  0.37327  0.57971  0.16455  1.0000
  O   O308      1.0  0.30508  0.70002  0.13317  1.0000
  O   O309      1.0  0.40068  0.52871  0.01167  1.0000
  O   O310      1.0  0.45585  0.61540  0.02869  1.0000
  Ta  Ta125     1.0  0.43785  0.72313  0.29443  1.0000
  Ta  Ta126     1.0  0.41104  0.57312  0.28854  1.0000
  Ta  Ta127     1.0  0.31285  0.72313  0.29443  1.0000
  Ta  Ta128     1.0  0.28604  0.57312  0.28854  1.0000
  O   O311      1.0  0.41670  0.52134  0.20886  1.0000
  O   O312      1.0  0.40838  0.67616  0.37341  1.0000
  O   O313      1.0  0.34019  0.54647  0.34204  1.0000
  O   O314      1.0  0.43578  0.62516  0.22053  1.0000
  O   O315      1.0  0.49096  0.71185  0.23755  1.0000
  O   O316      1.0  0.29170  0.52134  0.20886  1.0000
  O   O317      1.0  0.28338  0.67616  0.37341  1.0000
  O   O318      1.0  0.46519  0.54647  0.34204  1.0000
  O   O319      1.0  0.31078  0.62516  0.22053  1.0000
  O   O320      1.0  0.36596  0.71185  0.23755  1.0000
  Ta  Ta129     1.0  0.34795  0.56958  0.50329  1.0000
  Ta  Ta130     1.0  0.32115  0.66957  0.49740  1.0000
  Ta  Ta131     1.0  0.47295  0.56958  0.50329  1.0000
  Ta  Ta132     1.0  0.44615  0.66957  0.49740  1.0000
  O   O321      1.0  0.32681  0.61779  0.41772  1.0000
  O   O322      1.0  0.31848  0.52261  0.58228  1.0000
  O   O323      1.0  0.25029  0.64292  0.55090  1.0000
  O   O324      1.0  0.34589  0.72161  0.42939  1.0000
  O   O325      1.0  0.40106  0.55830  0.44642  1.0000
  O   O326      1.0  0.45181  0.61779  0.41772  1.0000
  O   O327      1.0  0.44348  0.52261  0.58228  1.0000
  O   O328      1.0  0.37529  0.64292  0.55090  1.0000
  O   O329      1.0  0.47089  0.72161  0.42939  1.0000
  O   O330      1.0  0.27606  0.55830  0.44642  1.0000
  Ta  Ta133     1.0  0.25806  0.66603  0.71216  1.0000
  Ta  Ta134     1.0  0.48125  0.51602  0.70626  1.0000
  Ta  Ta135     1.0  0.38306  0.66603  0.71216  1.0000
  Ta  Ta136     1.0  0.35625  0.51602  0.70626  1.0000
  O   O331      1.0  0.48691  0.71424  0.62659  1.0000
  O   O332      1.0  0.47859  0.61906  0.79114  1.0000
  O   O333      1.0  0.41040  0.73937  0.75976  1.0000
  O   O334      1.0  0.25599  0.56806  0.63825  1.0000
  O   O335      1.0  0.31117  0.65475  0.65528  1.0000
  O   O336      1.0  0.36191  0.71424  0.62659  1.0000
  O   O337      1.0  0.35359  0.61906  0.79114  1.0000
  O   O338      1.0  0.28540  0.73937  0.75976  1.0000
  O   O339      1.0  0.38099  0.56806  0.63825  1.0000
  O   O340      1.0  0.43617  0.65475  0.65528  1.0000
  Ta  Ta137     1.0  0.41816  0.51248  0.92102  1.0000
  Ta  Ta138     1.0  0.39136  0.61247  0.91512  1.0000
  Ta  Ta139     1.0  0.29316  0.51248  0.92102  1.0000
  Ta  Ta140     1.0  0.26636  0.61247  0.91512  1.0000
  O   O341      1.0  0.39702  0.56069  0.83545  1.0000
  O   O342      1.0  0.38869  0.71551  1.00000  1.0000
  O   O343      1.0  0.32050  0.58582  0.96862  1.0000
  O   O344      1.0  0.41610  0.66451  0.84712  1.0000
  O   O345      1.0  0.47127  0.50120  0.86414  1.0000
  O   O346      1.0  0.27202  0.56069  0.83545  1.0000
  O   O347      1.0  0.26369  0.71551  1.00000  1.0000
  O   O348      1.0  0.44550  0.58582  0.96862  1.0000
  O   O349      1.0  0.29110  0.66451  0.84712  1.0000
  O   O350      1.0  0.34627  0.50120  0.86414  1.0000
  Ta  Ta141     1.0  0.27774  0.87668  0.08557  1.0000
  Ta  Ta142     1.0  0.25094  0.97667  0.07967  1.0000
  Ta  Ta143     1.0  0.40274  0.87668  0.08557  1.0000
  Ta  Ta144     1.0  0.37594  0.97667  0.07967  1.0000
  O   O351      1.0  0.25660  0.92489  0.00000  1.0000
  O   O352      1.0  0.49827  0.82971  0.16455  1.0000
  O   O353      1.0  0.43008  0.95002  0.13317  1.0000
  O   O354      1.0  0.27568  0.77871  0.01167  1.0000
  O   O355      1.0  0.33085  0.86540  0.02869  1.0000
  O   O356      1.0  0.38160  0.92489  0.00000  1.0000
  O   O357      1.0  0.37327  0.82971  0.16455  1.0000
  O   O358      1.0  0.30508  0.95002  0.13317  1.0000
  O   O359      1.0  0.40068  0.77871  0.01167  1.0000
  O   O360      1.0  0.45585  0.86540  0.02869  1.0000
  Ta  Ta145     1.0  0.43785  0.97313  0.29443  1.0000
  Ta  Ta146     1.0  0.41104  0.82312  0.28854  1.0000
  Ta  Ta147     1.0  0.31285  0.97313  0.29443  1.0000
  Ta  Ta148     1.0  0.28604  0.82312  0.28854  1.0000
  O   O361      1.0  0.41670  0.77134  0.20886  1.0000
  O   O362      1.0  0.40838  0.92616  0.37341  1.0000
  O   O363      1.0  0.34019  0.79647  0.34204  1.0000
  O   O364      1.0  0.43578  0.87516  0.22053  1.0000
  O   O365      1.0  0.49096  0.96185  0.23755  1.0000
  O   O366      1.0  0.29170  0.77134  0.20886  1.0000
  O   O367      1.0  0.28338  0.92616  0.37341  1.0000
  O   O368      1.0  0.46519  0.79647  0.34204  1.0000
  O   O369      1.0  0.31078  0.87516  0.22053  1.0000
  O   O370      1.0  0.36596  0.96185  0.23755  1.0000
  Ta  Ta149     1.0  0.34795  0.81958  0.50329  1.0000
  Ta  Ta150     1.0  0.32115  0.91957  0.49740  1.0000
  Ta  Ta151     1.0  0.47295  0.81958  0.50329  1.0000
  Ta  Ta152     1.0  0.44615  0.91957  0.49740  1.0000
  O   O371      1.0  0.32681  0.86779  0.41772  1.0000
  O   O372      1.0  0.31848  0.77261  0.58228  1.0000
  O   O373      1.0  0.25029  0.89292  0.55090  1.0000
  O   O374      1.0  0.34589  0.97161  0.42939  1.0000
  O   O375      1.0  0.40106  0.80830  0.44642  1.0000
  O   O376      1.0  0.45181  0.86779  0.41772  1.0000
  O   O377      1.0  0.44348  0.77261  0.58228  1.0000
  O   O378      1.0  0.37529  0.89292  0.55090  1.0000
  O   O379      1.0  0.47089  0.97161  0.42939  1.0000
  O   O380      1.0  0.27606  0.80830  0.44642  1.0000
  Ta  Ta153     1.0  0.25806  0.91603  0.71216  1.0000
  Ta  Ta154     1.0  0.48125  0.76602  0.70626  1.0000
  Ta  Ta155     1.0  0.38306  0.91603  0.71216  1.0000
  Ta  Ta156     1.0  0.35625  0.76602  0.70626  1.0000
  O   O381      1.0  0.48691  0.96424  0.62659  1.0000
  O   O382      1.0  0.47859  0.86906  0.79114  1.0000
  O   O383      1.0  0.41040  0.98937  0.75976  1.0000
  O   O384      1.0  0.25599  0.81806  0.63825  1.0000
  O   O385      1.0  0.31117  0.90475  0.65528  1.0000
  O   O386      1.0  0.36191  0.96424  0.62659  1.0000
  O   O387      1.0  0.35359  0.86906  0.79114  1.0000
  O   O388      1.0  0.28540  0.98937  0.75976  1.0000
  O   O389      1.0  0.38099  0.81806  0.63825  1.0000
  O   O390      1.0  0.43617  0.90475  0.65528  1.0000
  Ta  Ta157     1.0  0.41816  0.76248  0.92102  1.0000
  Ta  Ta158     1.0  0.39136  0.86247  0.91512  1.0000
  Ta  Ta159     1.0  0.29316  0.76248  0.92102  1.0000
  Ta  Ta160     1.0  0.26636  0.86247  0.91512  1.0000
  O   O391      1.0  0.39702  0.81069  0.83545  1.0000
  O   O392      1.0  0.38869  0.96551  1.00000  1.0000
  O   O393      1.0  0.32050  0.83582  0.96862  1.0000
  O   O394      1.0  0.41610  0.91451  0.84712  1.0000
  O   O395      1.0  0.47127  0.75120  0.86414  1.0000
  O   O396      1.0  0.27202  0.81069  0.83545  1.0000
  O   O397      1.0  0.26369  0.96551  1.00000  1.0000
  O   O398      1.0  0.44550  0.83582  0.96862  1.0000
  O   O399      1.0  0.29110  0.91451  0.84712  1.0000
  O   O400      1.0  0.34627  0.75120  0.86414  1.0000
  Ta  Ta161     1.0  0.52774  0.12668  0.08557  1.0000
  Ta  Ta162     1.0  0.50094  0.22667  0.07967  1.0000
  Ta  Ta163     1.0  0.65274  0.12668  0.08557  1.0000
  Ta  Ta164     1.0  0.62594  0.22667  0.07967  1.0000
  O   O401      1.0  0.50660  0.17489  0.00000  1.0000
  O   O402      1.0  0.74827  0.07971  0.16455  1.0000
  O   O403      1.0  0.68008  0.20002  0.13317  1.0000
  O   O404      1.0  0.52568  0.02871  0.01167  1.0000
  O   O405      1.0  0.58085  0.11540  0.02869  1.0000
  O   O406      1.0  0.63160  0.17489  0.00000  1.0000
  O   O407      1.0  0.62327  0.07971  0.16455  1.0000
  O   O408      1.0  0.55508  0.20002  0.13317  1.0000
  O   O409      1.0  0.65068  0.02871  0.01167  1.0000
  O   O410      1.0  0.70585  0.11540  0.02869  1.0000
  Ta  Ta165     1.0  0.68785  0.22313  0.29443  1.0000
  Ta  Ta166     1.0  0.66104  0.07312  0.28854  1.0000
  Ta  Ta167     1.0  0.56285  0.22313  0.29443  1.0000
  Ta  Ta168     1.0  0.53604  0.07312  0.28854  1.0000
  O   O411      1.0  0.66670  0.02134  0.20886  1.0000
  O   O412      1.0  0.65838  0.17616  0.37341  1.0000
  O   O413      1.0  0.59019  0.04647  0.34204  1.0000
  O   O414      1.0  0.68578  0.12516  0.22053  1.0000
  O   O415      1.0  0.74096  0.21185  0.23755  1.0000
  O   O416      1.0  0.54170  0.02134  0.20886  1.0000
  O   O417      1.0  0.53338  0.17616  0.37341  1.0000
  O   O418      1.0  0.71519  0.04647  0.34204  1.0000
  O   O419      1.0  0.56078  0.12516  0.22053  1.0000
  O   O420      1.0  0.61596  0.21185  0.23755  1.0000
  Ta  Ta169     1.0  0.59795  0.06958  0.50329  1.0000
  Ta  Ta170     1.0  0.57115  0.16957  0.49740  1.0000
  Ta  Ta171     1.0  0.72295  0.06958  0.50329  1.0000
  Ta  Ta172     1.0  0.69615  0.16957  0.49740  1.0000
  O   O421      1.0  0.57681  0.11779  0.41772  1.0000
  O   O422      1.0  0.56848  0.02261  0.58228  1.0000
  O   O423      1.0  0.50029  0.14292  0.55090  1.0000
  O   O424      1.0  0.59589  0.22161  0.42939  1.0000
  O   O425      1.0  0.65106  0.05830  0.44642  1.0000
  O   O426      1.0  0.70181  0.11779  0.41772  1.0000
  O   O427      1.0  0.69348  0.02261  0.58228  1.0000
  O   O428      1.0  0.62529  0.14292  0.55090  1.0000
  O   O429      1.0  0.72089  0.22161  0.42939  1.0000
  O   O430      1.0  0.52606  0.05830  0.44642  1.0000
  Ta  Ta173     1.0  0.50806  0.16603  0.71216  1.0000
  Ta  Ta174     1.0  0.73125  0.01602  0.70626  1.0000
  Ta  Ta175     1.0  0.63306  0.16603  0.71216  1.0000
  Ta  Ta176     1.0  0.60625  0.01602  0.70626  1.0000
  O   O431      1.0  0.73691  0.21424  0.62659  1.0000
  O   O432      1.0  0.72859  0.11906  0.79114  1.0000
  O   O433      1.0  0.66040  0.23937  0.75976  1.0000
  O   O434      1.0  0.50599  0.06806  0.63825  1.0000
  O   O435      1.0  0.56117  0.15475  0.65528  1.0000
  O   O436      1.0  0.61191  0.21424  0.62659  1.0000
  O   O437      1.0  0.60359  0.11906  0.79114  1.0000
  O   O438      1.0  0.53540  0.23937  0.75976  1.0000
  O   O439      1.0  0.63099  0.06806  0.63825  1.0000
  O   O440      1.0  0.68617  0.15475  0.65528  1.0000
  Ta  Ta177     1.0  0.66816  0.01248  0.92102  1.0000
  Ta  Ta178     1.0  0.64136  0.11247  0.91512  1.0000
  Ta  Ta179     1.0  0.54316  0.01248  0.92102  1.0000
  Ta  Ta180     1.0  0.51636  0.11247  0.91512  1.0000
  O   O441      1.0  0.64702  0.06069  0.83545  1.0000
  O   O442      1.0  0.63869  0.21551  1.00000  1.0000
  O   O443      1.0  0.57050  0.08582  0.96862  1.0000
  O   O444      1.0  0.66610  0.16451  0.84712  1.0000
  O   O445      1.0  0.72127  0.00120  0.86414  1.0000
  O   O446      1.0  0.52202  0.06069  0.83545  1.0000
  O   O447      1.0  0.51369  0.21551  1.00000  1.0000
  O   O448      1.0  0.69550  0.08582  0.96862  1.0000
  O   O449      1.0  0.54110  0.16451  0.84712  1.0000
  O   O450      1.0  0.59627  0.00120  0.86414  1.0000
  Ta  Ta181     1.0  0.52774  0.37668  0.08557  1.0000
  Ta  Ta182     1.0  0.50094  0.47667  0.07967  1.0000
  Ta  Ta183     1.0  0.65274  0.37668  0.08557  1.0000
  Ta  Ta184     1.0  0.62594  0.47667  0.07967  1.0000
  O   O451      1.0  0.50660  0.42489  0.00000  1.0000
  O   O452      1.0  0.74827  0.32971  0.16455  1.0000
  O   O453      1.0  0.68008  0.45002  0.13317  1.0000
  O   O454      1.0  0.52568  0.27871  0.01167  1.0000
  O   O455      1.0  0.58085  0.36540  0.02869  1.0000
  O   O456      1.0  0.63160  0.42489  0.00000  1.0000
  O   O457      1.0  0.62327  0.32971  0.16455  1.0000
  O   O458      1.0  0.55508  0.45002  0.13317  1.0000
  O   O459      1.0  0.65068  0.27871  0.01167  1.0000
  O   O460      1.0  0.70585  0.36540  0.02869  1.0000
  Ta  Ta185     1.0  0.68785  0.47313  0.29443  1.0000
  Ta  Ta186     1.0  0.66104  0.32312  0.28854  1.0000
  Ta  Ta187     1.0  0.56285  0.47313  0.29443  1.0000
  Ta  Ta188     1.0  0.53604  0.32312  0.28854  1.0000
  O   O461      1.0  0.66670  0.27134  0.20886  1.0000
  O   O462      1.0  0.65838  0.42616  0.37341  1.0000
  O   O463      1.0  0.59019  0.29647  0.34204  1.0000
  O   O464      1.0  0.68578  0.37516  0.22053  1.0000
  O   O465      1.0  0.74096  0.46185  0.23755  1.0000
  O   O466      1.0  0.54170  0.27134  0.20886  1.0000
  O   O467      1.0  0.53338  0.42616  0.37341  1.0000
  O   O468      1.0  0.71519  0.29647  0.34204  1.0000
  O   O469      1.0  0.56078  0.37516  0.22053  1.0000
  O   O470      1.0  0.61596  0.46185  0.23755  1.0000
  Ta  Ta189     1.0  0.59795  0.31958  0.50329  1.0000
  Ta  Ta190     1.0  0.57115  0.41957  0.49740  1.0000
  Ta  Ta191     1.0  0.72295  0.31958  0.50329  1.0000
  Ta  Ta192     1.0  0.69615  0.41957  0.49740  1.0000
  O   O471      1.0  0.57681  0.36779  0.41772  1.0000
  O   O472      1.0  0.56848  0.27261  0.58228  1.0000
  O   O473      1.0  0.50029  0.39292  0.55090  1.0000
  O   O474      1.0  0.59589  0.47161  0.42939  1.0000
  O   O475      1.0  0.65106  0.30830  0.44642  1.0000
  O   O476      1.0  0.70181  0.36779  0.41772  1.0000
  O   O477      1.0  0.69348  0.27261  0.58228  1.0000
  O   O478      1.0  0.62529  0.39292  0.55090  1.0000
  O   O479      1.0  0.72089  0.47161  0.42939  1.0000
  O   O480      1.0  0.52606  0.30830  0.44642  1.0000
  Ta  Ta193     1.0  0.50806  0.41603  0.71216  1.0000
  Ta  Ta194     1.0  0.73125  0.26602  0.70626  1.0000
  Ta  Ta195     1.0  0.63306  0.41603  0.71216  1.0000
  Ta  Ta196     1.0  0.60625  0.26602  0.70626  1.0000
  O   O481      1.0  0.73691  0.46424  0.62659  1.0000
  O   O482      1.0  0.72859  0.36906  0.79114  1.0000
  O   O483      1.0  0.66040  0.48937  0.75976  1.0000
  O   O484      1.0  0.50599  0.31806  0.63825  1.0000
  O   O485      1.0  0.56117  0.40475  0.65528  1.0000
  O   O486      1.0  0.61191  0.46424  0.62659  1.0000
  O   O487      1.0  0.60359  0.36906  0.79114  1.0000
  O   O488      1.0  0.53540  0.48937  0.75976  1.0000
  O   O489      1.0  0.63099  0.31806  0.63825  1.0000
  O   O490      1.0  0.68617  0.40475  0.65528  1.0000
  Ta  Ta197     1.0  0.66816  0.26248  0.92102  1.0000
  Ta  Ta198     1.0  0.64136  0.36247  0.91512  1.0000
  Ta  Ta199     1.0  0.54316  0.26248  0.92102  1.0000
  Ta  Ta200     1.0  0.51636  0.36247  0.91512  1.0000
  O   O491      1.0  0.64702  0.31069  0.83545  1.0000
  O   O492      1.0  0.63869  0.46551  1.00000  1.0000
  O   O493      1.0  0.57050  0.33582  0.96862  1.0000
  O   O494      1.0  0.66610  0.41451  0.84712  1.0000
  O   O495      1.0  0.72127  0.25120  0.86414  1.0000
  O   O496      1.0  0.52202  0.31069  0.83545  1.0000
  O   O497      1.0  0.51369  0.46551  1.00000  1.0000
  O   O498      1.0  0.69550  0.33582  0.96862  1.0000
  O   O499      1.0  0.54110  0.41451  0.84712  1.0000
  O   O500      1.0  0.59627  0.25120  0.86414  1.0000
  Ta  Ta201     1.0  0.52774  0.62668  0.08557  1.0000
  Ta  Ta202     1.0  0.50094  0.72667  0.07967  1.0000
  Ta  Ta203     1.0  0.65274  0.62668  0.08557  1.0000
  Ta  Ta204     1.0  0.62594  0.72667  0.07967  1.0000
  O   O501      1.0  0.50660  0.67489  0.00000  1.0000
  O   O502      1.0  0.74827  0.57971  0.16455  1.0000
  O   O503      1.0  0.68008  0.70002  0.13317  1.0000
  O   O504      1.0  0.52568  0.52871  0.01167  1.0000
  O   O505      1.0  0.58085  0.61540  0.02869  1.0000
  O   O506      1.0  0.63160  0.67489  0.00000  1.0000
  O   O507      1.0  0.62327  0.57971  0.16455  1.0000
  O   O508      1.0  0.55508  0.70002  0.13317  1.0000
  O   O509      1.0  0.65068  0.52871  0.01167  1.0000
  O   O510      1.0  0.70585  0.61540  0.02869  1.0000
  Ta  Ta205     1.0  0.68785  0.72313  0.29443  1.0000
  Ta  Ta206     1.0  0.66104  0.57312  0.28854  1.0000
  Ta  Ta207     1.0  0.56285  0.72313  0.29443  1.0000
  Ta  Ta208     1.0  0.53604  0.57312  0.28854  1.0000
  O   O511      1.0  0.66670  0.52134  0.20886  1.0000
  O   O512      1.0  0.65838  0.67616  0.37341  1.0000
  O   O513      1.0  0.59019  0.54647  0.34204  1.0000
  O   O514      1.0  0.68578  0.62516  0.22053  1.0000
  O   O515      1.0  0.74096  0.71185  0.23755  1.0000
  O   O516      1.0  0.54170  0.52134  0.20886  1.0000
  O   O517      1.0  0.53338  0.67616  0.37341  1.0000
  O   O518      1.0  0.71519  0.54647  0.34204  1.0000
  O   O519      1.0  0.56078  0.62516  0.22053  1.0000
  O   O520      1.0  0.61596  0.71185  0.23755  1.0000
  Ta  Ta209     1.0  0.59795  0.56958  0.50329  1.0000
  Ta  Ta210     1.0  0.57115  0.66957  0.49740  1.0000
  Ta  Ta211     1.0  0.72295  0.56958  0.50329  1.0000
  Ta  Ta212     1.0  0.69615  0.66957  0.49740  1.0000
  O   O521      1.0  0.57681  0.61779  0.41772  1.0000
  O   O522      1.0  0.56848  0.52261  0.58228  1.0000
  O   O523      1.0  0.50029  0.64292  0.55090  1.0000
  O   O524      1.0  0.59589  0.72161  0.42939  1.0000
  O   O525      1.0  0.65106  0.55830  0.44642  1.0000
  O   O526      1.0  0.70181  0.61779  0.41772  1.0000
  O   O527      1.0  0.69348  0.52261  0.58228  1.0000
  O   O528      1.0  0.62529  0.64292  0.55090  1.0000
  O   O529      1.0  0.72089  0.72161  0.42939  1.0000
  O   O530      1.0  0.52606  0.55830  0.44642  1.0000
  Ta  Ta213     1.0  0.50806  0.66603  0.71216  1.0000
  Ta  Ta214     1.0  0.73125  0.51602  0.70626  1.0000
  Ta  Ta215     1.0  0.63306  0.66603  0.71216  1.0000
  Ta  Ta216     1.0  0.60625  0.51602  0.70626  1.0000
  O   O531      1.0  0.73691  0.71424  0.62659  1.0000
  O   O532      1.0  0.72859  0.61906  0.79114  1.0000
  O   O533      1.0  0.66040  0.73937  0.75976  1.0000
  O   O534      1.0  0.50599  0.56806  0.63825  1.0000
  O   O535      1.0  0.56117  0.65475  0.65528  1.0000
  O   O536      1.0  0.61191  0.71424  0.62659  1.0000
  O   O537      1.0  0.60359  0.61906  0.79114  1.0000
  O   O538      1.0  0.53540  0.73937  0.75976  1.0000
  O   O539      1.0  0.63099  0.56806  0.63825  1.0000
  O   O540      1.0  0.68617  0.65475  0.65528  1.0000
  Ta  Ta217     1.0  0.66816  0.51248  0.92102  1.0000
  Ta  Ta218     1.0  0.64136  0.61247  0.91512  1.0000
  Ta  Ta219     1.0  0.54316  0.51248  0.92102  1.0000
  Ta  Ta220     1.0  0.51636  0.61247  0.91512  1.0000
  O   O541      1.0  0.64702  0.56069  0.83545  1.0000
  O   O542      1.0  0.63869  0.71551  1.00000  1.0000
  O   O543      1.0  0.57050  0.58582  0.96862  1.0000
  O   O544      1.0  0.66610  0.66451  0.84712  1.0000
  O   O545      1.0  0.72127  0.50120  0.86414  1.0000
  O   O546      1.0  0.52202  0.56069  0.83545  1.0000
  O   O547      1.0  0.51369  0.71551  1.00000  1.0000
  O   O548      1.0  0.69550  0.58582  0.96862  1.0000
  O   O549      1.0  0.54110  0.66451  0.84712  1.0000
  O   O550      1.0  0.59627  0.50120  0.86414  1.0000
  Ta  Ta221     1.0  0.52774  0.87668  0.08557  1.0000
  Ta  Ta222     1.0  0.50094  0.97667  0.07967  1.0000
  Ta  Ta223     1.0  0.65274  0.87668  0.08557  1.0000
  Ta  Ta224     1.0  0.62594  0.97667  0.07967  1.0000
  O   O551      1.0  0.50660  0.92489  0.00000  1.0000
  O   O552      1.0  0.74827  0.82971  0.16455  1.0000
  O   O553      1.0  0.68008  0.95002  0.13317  1.0000
  O   O554      1.0  0.52568  0.77871  0.01167  1.0000
  O   O555      1.0  0.58085  0.86540  0.02869  1.0000
  O   O556      1.0  0.63160  0.92489  0.00000  1.0000
  O   O557      1.0  0.62327  0.82971  0.16455  1.0000
  O   O558      1.0  0.55508  0.95002  0.13317  1.0000
  O   O559      1.0  0.65068  0.77871  0.01167  1.0000
  O   O560      1.0  0.70585  0.86540  0.02869  1.0000
  Ta  Ta225     1.0  0.68785  0.97313  0.29443  1.0000
  Ta  Ta226     1.0  0.66104  0.82312  0.28854  1.0000
  Ta  Ta227     1.0  0.56285  0.97313  0.29443  1.0000
  Ta  Ta228     1.0  0.53604  0.82312  0.28854  1.0000
  O   O561      1.0  0.66670  0.77134  0.20886  1.0000
  O   O562      1.0  0.65838  0.92616  0.37341  1.0000
  O   O563      1.0  0.59019  0.79647  0.34204  1.0000
  O   O564      1.0  0.68578  0.87516  0.22053  1.0000
  O   O565      1.0  0.74096  0.96185  0.23755  1.0000
  O   O566      1.0  0.54170  0.77134  0.20886  1.0000
  O   O567      1.0  0.53338  0.92616  0.37341  1.0000
  O   O568      1.0  0.71519  0.79647  0.34204  1.0000
  O   O569      1.0  0.56078  0.87516  0.22053  1.0000
  O   O570      1.0  0.61596  0.96185  0.23755  1.0000
  Ta  Ta229     1.0  0.59795  0.81958  0.50329  1.0000
  Ta  Ta230     1.0  0.57115  0.91957  0.49740  1.0000
  Ta  Ta231     1.0  0.72295  0.81958  0.50329  1.0000
  Ta  Ta232     1.0  0.69615  0.91957  0.49740  1.0000
  O   O571      1.0  0.57681  0.86779  0.41772  1.0000
  O   O572      1.0  0.56848  0.77261  0.58228  1.0000
  O   O573      1.0  0.50029  0.89292  0.55090  1.0000
  O   O574      1.0  0.59589  0.97161  0.42939  1.0000
  O   O575      1.0  0.65106  0.80830  0.44642  1.0000
  O   O576      1.0  0.70181  0.86779  0.41772  1.0000
  O   O577      1.0  0.69348  0.77261  0.58228  1.0000
  O   O578      1.0  0.62529  0.89292  0.55090  1.0000
  O   O579      1.0  0.72089  0.97161  0.42939  1.0000
  O   O580      1.0  0.52606  0.80830  0.44642  1.0000
  Ta  Ta233     1.0  0.50806  0.91603  0.71216  1.0000
  Ta  Ta234     1.0  0.73125  0.76602  0.70626  1.0000
  Ta  Ta235     1.0  0.63306  0.91603  0.71216  1.0000
  Ta  Ta236     1.0  0.60625  0.76602  0.70626  1.0000
  O   O581      1.0  0.73691  0.96424  0.62659  1.0000
  O   O582      1.0  0.72859  0.86906  0.79114  1.0000
  O   O583      1.0  0.66040  0.98937  0.75976  1.0000
  O   O584      1.0  0.50599  0.81806  0.63825  1.0000
  O   O585      1.0  0.56117  0.90475  0.65528  1.0000
  O   O586      1.0  0.61191  0.96424  0.62659  1.0000
  O   O587      1.0  0.60359  0.86906  0.79114  1.0000
  O   O588      1.0  0.53540  0.98937  0.75976  1.0000
  O   O589      1.0  0.63099  0.81806  0.63825  1.0000
  O   O590      1.0  0.68617  0.90475  0.65528  1.0000
  Ta  Ta237     1.0  0.66816  0.76248  0.92102  1.0000
  Ta  Ta238     1.0  0.64136  0.86247  0.91512  1.0000
  Ta  Ta239     1.0  0.54316  0.76248  0.92102  1.0000
  Ta  Ta240     1.0  0.51636  0.86247  0.91512  1.0000
  O   O591      1.0  0.64702  0.81069  0.83545  1.0000
  O   O592      1.0  0.63869  0.96551  1.00000  1.0000
  O   O593      1.0  0.57050  0.83582  0.96862  1.0000
  O   O594      1.0  0.66610  0.91451  0.84712  1.0000
  O   O595      1.0  0.72127  0.75120  0.86414  1.0000
  O   O596      1.0  0.52202  0.81069  0.83545  1.0000
  O   O597      1.0  0.51369  0.96551  1.00000  1.0000
  O   O598      1.0  0.69550  0.83582  0.96862  1.0000
  O   O599      1.0  0.54110  0.91451  0.84712  1.0000
  O   O600      1.0  0.59627  0.75120  0.86414  1.0000
  Ta  Ta241     1.0  0.77774  0.12668  0.08557  1.0000
  Ta  Ta242     1.0  0.75094  0.22667  0.07967  1.0000
  Ta  Ta243     1.0  0.90274  0.12668  0.08557  1.0000
  Ta  Ta244     1.0  0.87594  0.22667  0.07967  1.0000
  O   O601      1.0  0.75660  0.17489  0.00000  1.0000
  O   O602      1.0  0.99827  0.07971  0.16455  1.0000
  O   O603      1.0  0.93008  0.20002  0.13317  1.0000
  O   O604      1.0  0.77568  0.02871  0.01167  1.0000
  O   O605      1.0  0.83085  0.11540  0.02869  1.0000
  O   O606      1.0  0.88160  0.17489  0.00000  1.0000
  O   O607      1.0  0.87327  0.07971  0.16455  1.0000
  O   O608      1.0  0.80508  0.20002  0.13317  1.0000
  O   O609      1.0  0.90068  0.02871  0.01167  1.0000
  O   O610      1.0  0.95585  0.11540  0.02869  1.0000
  Ta  Ta245     1.0  0.93785  0.22313  0.29443  1.0000
  Ta  Ta246     1.0  0.91104  0.07312  0.28854  1.0000
  Ta  Ta247     1.0  0.81285  0.22313  0.29443  1.0000
  Ta  Ta248     1.0  0.78604  0.07312  0.28854  1.0000
  O   O611      1.0  0.91670  0.02134  0.20886  1.0000
  O   O612      1.0  0.90838  0.17616  0.37341  1.0000
  O   O613      1.0  0.84019  0.04647  0.34204  1.0000
  O   O614      1.0  0.93578  0.12516  0.22053  1.0000
  O   O615      1.0  0.99096  0.21185  0.23755  1.0000
  O   O616      1.0  0.79170  0.02134  0.20886  1.0000
  O   O617      1.0  0.78338  0.17616  0.37341  1.0000
  O   O618      1.0  0.96519  0.04647  0.34204  1.0000
  O   O619      1.0  0.81078  0.12516  0.22053  1.0000
  O   O620      1.0  0.86596  0.21185  0.23755  1.0000
  Ta  Ta249     1.0  0.84795  0.06958  0.50329  1.0000
  Ta  Ta250     1.0  0.82115  0.16957  0.49740  1.0000
  Ta  Ta251     1.0  0.97295  0.06958  0.50329  1.0000
  Ta  Ta252     1.0  0.94615  0.16957  0.49740  1.0000
  O   O621      1.0  0.82681  0.11779  0.41772  1.0000
  O   O622      1.0  0.81848  0.02261  0.58228  1.0000
  O   O623      1.0  0.75029  0.14292  0.55090  1.0000
  O   O624      1.0  0.84589  0.22161  0.42939  1.0000
  O   O625      1.0  0.90106  0.05830  0.44642  1.0000
  O   O626      1.0  0.95181  0.11779  0.41772  1.0000
  O   O627      1.0  0.94348  0.02261  0.58228  1.0000
  O   O628      1.0  0.87529  0.14292  0.55090  1.0000
  O   O629      1.0  0.97089  0.22161  0.42939  1.0000
  O   O630      1.0  0.77606  0.05830  0.44642  1.0000
  Ta  Ta253     1.0  0.75806  0.16603  0.71216  1.0000
  Ta  Ta254     1.0  0.98125  0.01602  0.70626  1.0000
  Ta  Ta255     1.0  0.88306  0.16603  0.71216  1.0000
  Ta  Ta256     1.0  0.85625  0.01602  0.70626  1.0000
  O   O631      1.0  0.98691  0.21424  0.62659  1.0000
  O   O632      1.0  0.97859  0.11906  0.79114  1.0000
  O   O633      1.0  0.91040  0.23937  0.75976  1.0000
  O   O634      1.0  0.75599  0.06806  0.63825  1.0000
  O   O635      1.0  0.81117  0.15475  0.65528  1.0000
  O   O636      1.0  0.86191  0.21424  0.62659  1.0000
  O   O637      1.0  0.85359  0.11906  0.79114  1.0000
  O   O638      1.0  0.78540  0.23937  0.75976  1.0000
  O   O639      1.0  0.88099  0.06806  0.63825  1.0000
  O   O640      1.0  0.93617  0.15475  0.65528  1.0000
  Ta  Ta257     1.0  0.91816  0.01248  0.92102  1.0000
  Ta  Ta258     1.0  0.89136  0.11247  0.91512  1.0000
  Ta  Ta259     1.0  0.79316  0.01248  0.92102  1.0000
  Ta  Ta260     1.0  0.76636  0.11247  0.91512  1.0000
  O   O641      1.0  0.89702  0.06069  0.83545  1.0000
  O   O642      1.0  0.88869  0.21551  1.00000  1.0000
  O   O643      1.0  0.82050  0.08582  0.96862  1.0000
  O   O644      1.0  0.91610  0.16451  0.84712  1.0000
  O   O645      1.0  0.97127  0.00120  0.86414  1.0000
  O   O646      1.0  0.77202  0.06069  0.83545  1.0000
  O   O647      1.0  0.76369  0.21551  1.00000  1.0000
  O   O648      1.0  0.94550  0.08582  0.96862  1.0000
  O   O649      1.0  0.79110  0.16451  0.84712  1.0000
  O   O650      1.0  0.84627  0.00120  0.86414  1.0000
  Ta  Ta261     1.0  0.77774  0.37668  0.08557  1.0000
  Ta  Ta262     1.0  0.75094  0.47667  0.07967  1.0000
  Ta  Ta263     1.0  0.90274  0.37668  0.08557  1.0000
  Ta  Ta264     1.0  0.87594  0.47667  0.07967  1.0000
  O   O651      1.0  0.75660  0.42489  0.00000  1.0000
  O   O652      1.0  0.99827  0.32971  0.16455  1.0000
  O   O653      1.0  0.93008  0.45002  0.13317  1.0000
  O   O654      1.0  0.77568  0.27871  0.01167  1.0000
  O   O655      1.0  0.83085  0.36540  0.02869  1.0000
  O   O656      1.0  0.88160  0.42489  0.00000  1.0000
  O   O657      1.0  0.87327  0.32971  0.16455  1.0000
  O   O658      1.0  0.80508  0.45002  0.13317  1.0000
  O   O659      1.0  0.90068  0.27871  0.01167  1.0000
  O   O660      1.0  0.95585  0.36540  0.02869  1.0000
  Ta  Ta265     1.0  0.93785  0.47313  0.29443  1.0000
  Ta  Ta266     1.0  0.91104  0.32312  0.28854  1.0000
  Ta  Ta267     1.0  0.81285  0.47313  0.29443  1.0000
  Ta  Ta268     1.0  0.78604  0.32312  0.28854  1.0000
  O   O661      1.0  0.91670  0.27134  0.20886  1.0000
  O   O662      1.0  0.90838  0.42616  0.37341  1.0000
  O   O663      1.0  0.84019  0.29647  0.34204  1.0000
  O   O664      1.0  0.93578  0.37516  0.22053  1.0000
  O   O665      1.0  0.99096  0.46185  0.23755  1.0000
  O   O666      1.0  0.79170  0.27134  0.20886  1.0000
  O   O667      1.0  0.78338  0.42616  0.37341  1.0000
  O   O668      1.0  0.96519  0.29647  0.34204  1.0000
  O   O669      1.0  0.81078  0.37516  0.22053  1.0000
  O   O670      1.0  0.86596  0.46185  0.23755  1.0000
  Ta  Ta269     1.0  0.84795  0.31958  0.50329  1.0000
  Ta  Ta270     1.0  0.82115  0.41957  0.49740  1.0000
  Ta  Ta271     1.0  0.97295  0.31958  0.50329  1.0000
  Ta  Ta272     1.0  0.94615  0.41957  0.49740  1.0000
  O   O671      1.0  0.82681  0.36779  0.41772  1.0000
  O   O672      1.0  0.81848  0.27261  0.58228  1.0000
  O   O673      1.0  0.75029  0.39292  0.55090  1.0000
  O   O674      1.0  0.84589  0.47161  0.42939  1.0000
  O   O675      1.0  0.90106  0.30830  0.44642  1.0000
  O   O676      1.0  0.95181  0.36779  0.41772  1.0000
  O   O677      1.0  0.94348  0.27261  0.58228  1.0000
  O   O678      1.0  0.87529  0.39292  0.55090  1.0000
  O   O679      1.0  0.97089  0.47161  0.42939  1.0000
  O   O680      1.0  0.77606  0.30830  0.44642  1.0000
  Ta  Ta273     1.0  0.75806  0.41603  0.71216  1.0000
  Ta  Ta274     1.0  0.98125  0.26602  0.70626  1.0000
  Ta  Ta275     1.0  0.88306  0.41603  0.71216  1.0000
  Ta  Ta276     1.0  0.85625  0.26602  0.70626  1.0000
  O   O681      1.0  0.98691  0.46424  0.62659  1.0000
  O   O682      1.0  0.97859  0.36906  0.79114  1.0000
  O   O683      1.0  0.91040  0.48937  0.75976  1.0000
  O   O684      1.0  0.75599  0.31806  0.63825  1.0000
  O   O685      1.0  0.81117  0.40475  0.65528  1.0000
  O   O686      1.0  0.86191  0.46424  0.62659  1.0000
  O   O687      1.0  0.85359  0.36906  0.79114  1.0000
  O   O688      1.0  0.78540  0.48937  0.75976  1.0000
  O   O689      1.0  0.88099  0.31806  0.63825  1.0000
  O   O690      1.0  0.93617  0.40475  0.65528  1.0000
  Ta  Ta277     1.0  0.91816  0.26248  0.92102  1.0000
  Ta  Ta278     1.0  0.89136  0.36247  0.91512  1.0000
  Ta  Ta279     1.0  0.79316  0.26248  0.92102  1.0000
  Ta  Ta280     1.0  0.76636  0.36247  0.91512  1.0000
  O   O691      1.0  0.89702  0.31069  0.83545  1.0000
  O   O692      1.0  0.88869  0.46551  1.00000  1.0000
  O   O693      1.0  0.82050  0.33582  0.96862  1.0000
  O   O694      1.0  0.91610  0.41451  0.84712  1.0000
  O   O695      1.0  0.97127  0.25120  0.86414  1.0000
  O   O696      1.0  0.77202  0.31069  0.83545  1.0000
  O   O697      1.0  0.76369  0.46551  1.00000  1.0000
  O   O698      1.0  0.94550  0.33582  0.96862  1.0000
  O   O699      1.0  0.79110  0.41451  0.84712  1.0000
  O   O700      1.0  0.84627  0.25120  0.86414  1.0000
  Ta  Ta281     1.0  0.77774  0.62668  0.08557  1.0000
  Ta  Ta282     1.0  0.75094  0.72667  0.07967  1.0000
  Ta  Ta283     1.0  0.90274  0.62668  0.08557  1.0000
  Ta  Ta284     1.0  0.87594  0.72667  0.07967  1.0000
  O   O701      1.0  0.75660  0.67489  0.00000  1.0000
  O   O702      1.0  0.99827  0.57971  0.16455  1.0000
  O   O703      1.0  0.93008  0.70002  0.13317  1.0000
  O   O704      1.0  0.77568  0.52871  0.01167  1.0000
  O   O705      1.0  0.83085  0.61540  0.02869  1.0000
  O   O706      1.0  0.88160  0.67489  0.00000  1.0000
  O   O707      1.0  0.87327  0.57971  0.16455  1.0000
  O   O708      1.0  0.80508  0.70002  0.13317  1.0000
  O   O709      1.0  0.90068  0.52871  0.01167  1.0000
  O   O710      1.0  0.95585  0.61540  0.02869  1.0000
  Ta  Ta285     1.0  0.93785  0.72313  0.29443  1.0000
  Ta  Ta286     1.0  0.91104  0.57312  0.28854  1.0000
  Ta  Ta287     1.0  0.81285  0.72313  0.29443  1.0000
  Ta  Ta288     1.0  0.78604  0.57312  0.28854  1.0000
  O   O711      1.0  0.91670  0.52134  0.20886  1.0000
  O   O712      1.0  0.90838  0.67616  0.37341  1.0000
  O   O713      1.0  0.84019  0.54647  0.34204  1.0000
  O   O714      1.0  0.93578  0.62516  0.22053  1.0000
  O   O715      1.0  0.99096  0.71185  0.23755  1.0000
  O   O716      1.0  0.79170  0.52134  0.20886  1.0000
  O   O717      1.0  0.78338  0.67616  0.37341  1.0000
  O   O718      1.0  0.96519  0.54647  0.34204  1.0000
  O   O719      1.0  0.81078  0.62516  0.22053  1.0000
  O   O720      1.0  0.86596  0.71185  0.23755  1.0000
  Ta  Ta289     1.0  0.84795  0.56958  0.50329  1.0000
  Ta  Ta290     1.0  0.82115  0.66957  0.49740  1.0000
  Ta  Ta291     1.0  0.97295  0.56958  0.50329  1.0000
  Ta  Ta292     1.0  0.94615  0.66957  0.49740  1.0000
  O   O721      1.0  0.82681  0.61779  0.41772  1.0000
  O   O722      1.0  0.81848  0.52261  0.58228  1.0000
  O   O723      1.0  0.75029  0.64292  0.55090  1.0000
  O   O724      1.0  0.84589  0.72161  0.42939  1.0000
  O   O725      1.0  0.90106  0.55830  0.44642  1.0000
  O   O726      1.0  0.95181  0.61779  0.41772  1.0000
  O   O727      1.0  0.94348  0.52261  0.58228  1.0000
  O   O728      1.0  0.87529  0.64292  0.55090  1.0000
  O   O729      1.0  0.97089  0.72161  0.42939  1.0000
  O   O730      1.0  0.77606  0.55830  0.44642  1.0000
  Ta  Ta293     1.0  0.75806  0.66603  0.71216  1.0000
  Ta  Ta294     1.0  0.98125  0.51602  0.70626  1.0000
  Ta  Ta295     1.0  0.88306  0.66603  0.71216  1.0000
  Ta  Ta296     1.0  0.85625  0.51602  0.70626  1.0000
  O   O731      1.0  0.98691  0.71424  0.62659  1.0000
  O   O732      1.0  0.97859  0.61906  0.79114  1.0000
  O   O733      1.0  0.91040  0.73937  0.75976  1.0000
  O   O734      1.0  0.75599  0.56806  0.63825  1.0000
  O   O735      1.0  0.81117  0.65475  0.65528  1.0000
  O   O736      1.0  0.86191  0.71424  0.62659  1.0000
  O   O737      1.0  0.85359  0.61906  0.79114  1.0000
  O   O738      1.0  0.78540  0.73937  0.75976  1.0000
  O   O739      1.0  0.88099  0.56806  0.63825  1.0000
  O   O740      1.0  0.93617  0.65475  0.65528  1.0000
  Ta  Ta297     1.0  0.91816  0.51248  0.92102  1.0000
  Ta  Ta298     1.0  0.89136  0.61247  0.91512  1.0000
  Ta  Ta299     1.0  0.79316  0.51248  0.92102  1.0000
  Ta  Ta300     1.0  0.76636  0.61247  0.91512  1.0000
  O   O741      1.0  0.89702  0.56069  0.83545  1.0000
  O   O742      1.0  0.88869  0.71551  1.00000  1.0000
  O   O743      1.0  0.82050  0.58582  0.96862  1.0000
  O   O744      1.0  0.91610  0.66451  0.84712  1.0000
  O   O745      1.0  0.97127  0.50120  0.86414  1.0000
  O   O746      1.0  0.77202  0.56069  0.83545  1.0000
  O   O747      1.0  0.76369  0.71551  1.00000  1.0000
  O   O748      1.0  0.94550  0.58582  0.96862  1.0000
  O   O749      1.0  0.79110  0.66451  0.84712  1.0000
  O   O750      1.0  0.84627  0.50120  0.86414  1.0000
  Ta  Ta301     1.0  0.77774  0.87668  0.08557  1.0000
  Ta  Ta302     1.0  0.75094  0.97667  0.07967  1.0000
  Ta  Ta303     1.0  0.90274  0.87668  0.08557  1.0000
  Ta  Ta304     1.0  0.87594  0.97667  0.07967  1.0000
  O   O751      1.0  0.75660  0.92489  0.00000  1.0000
  O   O752      1.0  0.99827  0.82971  0.16455  1.0000
  O   O753      1.0  0.93008  0.95002  0.13317  1.0000
  O   O754      1.0  0.77568  0.77871  0.01167  1.0000
  O   O755      1.0  0.83085  0.86540  0.02869  1.0000
  O   O756      1.0  0.88160  0.92489  0.00000  1.0000
  O   O757      1.0  0.87327  0.82971  0.16455  1.0000
  O   O758      1.0  0.80508  0.95002  0.13317  1.0000
  O   O759      1.0  0.90068  0.77871  0.01167  1.0000
  O   O760      1.0  0.95585  0.86540  0.02869  1.0000
  Ta  Ta305     1.0  0.93785  0.97313  0.29443  1.0000
  Ta  Ta306     1.0  0.91104  0.82312  0.28854  1.0000
  Ta  Ta307     1.0  0.81285  0.97313  0.29443  1.0000
  Ta  Ta308     1.0  0.78604  0.82312  0.28854  1.0000
  O   O761      1.0  0.91670  0.77134  0.20886  1.0000
  O   O762      1.0  0.90838  0.92616  0.37341  1.0000
  O   O763      1.0  0.84019  0.79647  0.34204  1.0000
  O   O764      1.0  0.93578  0.87516  0.22053  1.0000
  O   O765      1.0  0.99096  0.96185  0.23755  1.0000
  O   O766      1.0  0.79170  0.77134  0.20886  1.0000
  O   O767      1.0  0.78338  0.92616  0.37341  1.0000
  O   O768      1.0  0.96519  0.79647  0.34204  1.0000
  O   O769      1.0  0.81078  0.87516  0.22053  1.0000
  O   O770      1.0  0.86596  0.96185  0.23755  1.0000
  Ta  Ta309     1.0  0.84795  0.81958  0.50329  1.0000
  Ta  Ta310     1.0  0.82115  0.91957  0.49740  1.0000
  Ta  Ta311     1.0  0.97295  0.81958  0.50329  1.0000
  Ta  Ta312     1.0  0.94615  0.91957  0.49740  1.0000
  O   O771      1.0  0.82681  0.86779  0.41772  1.0000
  O   O772      1.0  0.81848  0.77261  0.58228  1.0000
  O   O773      1.0  0.75029  0.89292  0.55090  1.0000
  O   O774      1.0  0.84589  0.97161  0.42939  1.0000
  O   O775      1.0  0.90106  0.80830  0.44642  1.0000
  O   O776      1.0  0.95181  0.86779  0.41772  1.0000
  O   O777      1.0  0.94348  0.77261  0.58228  1.0000
  O   O778      1.0  0.87529  0.89292  0.55090  1.0000
  O   O779      1.0  0.97089  0.97161  0.42939  1.0000
  O   O780      1.0  0.77606  0.80830  0.44642  1.0000
  Ta  Ta313     1.0  0.75806  0.91603  0.71216  1.0000
  Ta  Ta314     1.0  0.98125  0.76602  0.70626  1.0000
  Ta  Ta315     1.0  0.88306  0.91603  0.71216  1.0000
  Ta  Ta316     1.0  0.85625  0.76602  0.70626  1.0000
  O   O781      1.0  0.98691  0.96424  0.62659  1.0000
  O   O782      1.0  0.97859  0.86906  0.79114  1.0000
  O   O783      1.0  0.91040  0.98937  0.75976  1.0000
  O   O784      1.0  0.75599  0.81806  0.63825  1.0000
  O   O785      1.0  0.81117  0.90475  0.65528  1.0000
  O   O786      1.0  0.86191  0.96424  0.62659  1.0000
  O   O787      1.0  0.85359  0.86906  0.79114  1.0000
  O   O788      1.0  0.78540  0.98937  0.75976  1.0000
  O   O789      1.0  0.88099  0.81806  0.63825  1.0000
  O   O790      1.0  0.93617  0.90475  0.65528  1.0000
  Ta  Ta317     1.0  0.91816  0.76248  0.92102  1.0000
  Ta  Ta318     1.0  0.89136  0.86247  0.91512  1.0000
  Ta  Ta319     1.0  0.79316  0.76248  0.92102  1.0000
  Ta  Ta320     1.0  0.76636  0.86247  0.91512  1.0000
  O   O791      1.0  0.89702  0.81069  0.83545  1.0000
  O   O792      1.0  0.88869  0.96551  1.00000  1.0000
  O   O793      1.0  0.82050  0.83582  0.96862  1.0000
  O   O794      1.0  0.91610  0.91451  0.84712  1.0000
  O   O795      1.0  0.97127  0.75120  0.86414  1.0000
  O   O796      1.0  0.77202  0.81069  0.83545  1.0000
  O   O797      1.0  0.76369  0.96551  1.00000  1.0000
  O   O798      1.0  0.94550  0.83582  0.96862  1.0000
  O   O799      1.0  0.79110  0.91451  0.84712  1.0000
  O   O800      1.0  0.84627  0.75120  0.86414  1.0000
